14   

C       -0.3073181440    0.8559942674   -2.0517092231
C       -0.4546071975   -0.1050800792   -0.9694483587
C       -1.0822407284    0.5390826546   -3.1374452560
C       -1.3506898695   -1.1149877132   -1.2687436784
C       -1.7304182729   -2.2922533309   -0.4666153984
C       -1.3103561423   -2.3861402796    0.9925208055
O       -2.3294401386   -3.2374974564   -0.9720184232
S       -2.0215685436   -0.9285863005   -2.8899111624
H        0.3458500196    1.7210548522   -2.0054366750
H        0.0925286401   -0.0326503238   -0.0353570224
H       -1.1193544286    1.1186357835   -4.0523320427
H       -1.7467204663   -1.5565195832    1.5547939063
H       -0.2210023134   -2.3440047986    1.0691354920
H       -1.6601497369   -3.3291870184    1.4220473540
14   

C       -0.2960613679    0.8554578861   -2.0623139892
C       -0.3905704092   -0.1379795954   -1.0036018180
C       -1.1730691247    0.6082436500   -3.0869619213
C       -1.3587959404   -1.0927946966   -1.2525436759
C       -1.6833273090   -2.3078098064   -0.4759223624
C       -1.3130541041   -2.3872420269    0.9976363548
O       -2.1351530253   -3.3085596990   -1.0232198911
S       -2.1512273214   -0.8278081186   -2.8056625938
H        0.3972068016    1.6898530184   -2.0462059903
H        0.2483579963   -0.1307020862   -0.1268636886
H       -1.2608405266    1.2195582358   -3.9773900097
H       -1.8764463999   -1.6360452964    1.5572939865
H       -0.2428555693   -2.2082817969    1.1258502989
H       -1.5555622609   -3.3785761633    1.3908642439
14   

C       -0.2491749104    0.8046198836   -2.0874495953
C       -0.3015569375   -0.2145016959   -1.0503401806
C       -1.2369244778    0.6435818385   -3.0250749212
C       -1.3545341552   -1.0924862340   -1.2209316686
C       -1.6491226625   -2.3311886240   -0.4580830067
C       -1.3346045985   -2.3978120114    1.0296824343
O       -1.9728501424   -3.3657276587   -1.0291846102
S       -2.2735596189   -0.7372433734   -2.6823821277
H        0.4960206615    1.5924130336   -2.1214441450
H        0.4295233345   -0.2827184673   -0.2518848474
H       -1.3710773746    1.2855476702   -3.8877162562
H       -2.1044957035   -1.8579917478    1.5871622083
H       -0.3604015559   -1.9498150692    1.2366506869
H       -1.3199407752   -3.4395937891    1.3621423611
14   

C       -0.2122814629    0.7916934286   -2.1126113526
C       -0.2200324475   -0.2596222585   -1.1067707268
C       -1.2833281112    0.7030869518   -2.9650408543
C       -1.3235462433   -1.0812301735   -1.2088630145
C       -1.5776250923   -2.3475233285   -0.4612913751
C       -1.3713616157   -2.3827772273    1.0459746209
O       -1.7322831720   -3.4089119416   -1.0488497906
S       -2.3466963740   -0.6447723891   -2.5745813238
H        0.5621836356    1.5476874904   -2.1884588537
H        0.5760639798   -0.3950805042   -0.3821878321
H       -1.4618997550    1.3783043944   -3.7935697285
H       -2.2812340502   -2.0360533435    1.5427399646
H       -0.5401158521   -1.7357156831    1.3347812296
H       -1.1547521498   -3.4042485203    1.3707534300
14   

C       -0.6263079293    0.8812603532   -2.0651080904
C       -1.1450669118   -0.0649323251   -1.0889284289
C       -0.4848680321    0.3190944460   -3.3085726990
C       -1.4151212492   -1.2964541590   -1.6403818861
C       -1.8168223781   -2.5434715178   -0.9060892980
C       -3.1182613348   -2.5548674568   -0.1198464515
O       -1.0245455112   -3.4563687255   -0.7369375789
S       -0.9842914902   -1.3690079188   -3.3458802967
H       -0.3669800365    1.9082242271   -1.8302616340
H       -1.2744754033    0.1693818521   -0.0372993966
H       -0.1036840800    0.8444357086   -4.1763276112
H       -3.9407160429   -2.8272026595   -0.7863356347
H       -3.3139343375   -1.5655255125    0.3008322251
H       -3.0597916054   -3.2836421349    0.6932599509
14   

C       -0.4995389392    0.8471389147   -2.0644800817
C       -0.9173150948   -0.0855629361   -1.0284651517
C       -0.5646070012    0.2936067342   -3.3182714112
C       -1.2879360180   -1.3051362919   -1.5376537288
C       -1.7648391147   -2.5112642233   -0.7692471844
C       -3.2439979469   -2.6554310836   -0.4530560248
O       -0.9797236160   -3.3504274001   -0.3625347335
S       -1.1328269500   -1.3727564569   -3.2897085146
H       -0.1697623168    1.8612059960   -1.8644838027
H       -0.9259826836    0.1536504101    0.0301018911
H       -0.2942013884    0.8136537835   -4.2297428197
H       -3.8060418504   -2.7849386126   -1.3814592423
H       -3.6001769366   -1.7580743604    0.0592530249
H       -3.4081184344   -3.5245515965    0.1901229557
14   

C       -0.4041587417    0.8135870785   -2.0202594064
C       -0.7440421611   -0.0978614223   -0.9381253719
C       -0.6776744946    0.2794877919   -3.2537338286
C       -1.2369854488   -1.2979385216   -1.3913625990
C       -1.7865034570   -2.4130662445   -0.5485148739
C       -3.2559932895   -2.7867616240   -0.6678419573
O       -1.0475526772   -3.1403789562    0.0954182174
S       -1.3468707018   -1.3455045101   -3.1493143925
H        0.0144966212    1.8024061697   -1.8650712824
H       -0.6283570810    0.1441758537    0.1137021033
H       -0.5013862317    0.7910309715   -4.1926902698
H       -3.5538504928   -2.8224072235   -1.7183895961
H       -3.8629843581   -2.0401344477   -0.1492815615
H       -3.4320301488   -3.7663736870   -0.2147747944
14   

C       -0.3265778174    0.7833171994   -2.0250623076
C       -0.6382617849   -0.1261216702   -0.9330614708
C       -0.7515057312    0.3031021112   -3.2373481951
C       -1.2578311543   -1.2794122889   -1.3598061234
C       -1.8276026026   -2.3393563969   -0.4745410517
C       -3.2421418056   -2.8477554330   -0.7119997607
O       -1.1176405569   -2.9397640343    0.3196301895
S       -1.5329432119   -1.2684576676   -3.1014376153
H        0.1791913747    1.7336818602   -1.8904354105
H       -0.4176716706    0.0826167304    0.1093066656
H       -0.6222574012    0.8240877189   -4.1787652106
H       -3.3852435758   -3.1018604224   -1.7647221583
H       -3.9587051270   -2.0726703913   -0.4278824182
H       -3.4256257856   -3.7393169764   -0.1057637661
14   

C       -0.2622579201    0.7718916270   -2.0506067352
C       -0.5570472603   -0.1356684096   -0.9524829017
C       -0.8185307295    0.3542068768   -3.2325513910
C       -1.3000820959   -1.2283284570   -1.3470606837
C       -1.8651163358   -2.2571847922   -0.4338124941
C       -3.2189112554   -2.8865453102   -0.7290266003
O       -1.1824790589   -2.7286443510    0.4671185346
S       -1.7094019921   -1.1545176940   -3.0610467104
H        0.3260819509    1.6768353981   -1.9408858836
H       -0.2378388921    0.0290030980    0.0723071721
H       -0.7233470576    0.8857157736   -4.1721411853
H       -3.2381542963   -3.2882694491   -1.7448278460
H       -4.0025579656   -2.1318490494   -0.6225833846
H       -3.4134153509   -3.7003618662   -0.0247487248
14   

C       -0.2121829609    0.7495700103   -2.0817965077
C       -0.5107853899   -0.1501515131   -0.9782809578
C       -0.8754581806    0.4004576969   -3.2304180705
C       -1.3729220135   -1.1669913658   -1.3360935539
C       -1.9360842633   -2.1781790101   -0.4091852739
C       -3.2295062706   -2.9046844427   -0.7487694245
O       -1.3019172712   -2.5312447509    0.5789154469
S       -1.8783567008   -1.0312746103   -3.0206251755
H        0.4561699621    1.6001919224   -1.9991269812
H       -0.1083497262   -0.0359161493    0.0239964384
H       -0.7955591904    0.9390637066   -4.1673806728
H       -3.1562872242   -3.3660260444   -1.7365675464
H       -4.0608535716   -2.1949317892   -0.7394746529
H       -3.4230253537   -3.6865204532   -0.0088854251
14   

C       -0.1755096805    0.7324905801   -2.1019458025
C       -0.4698753351   -0.1626618289   -0.9935717124
C       -0.9415075174    0.4606667529   -3.2068068975
C       -1.4424016995   -1.0931795458   -1.3023089839
C       -1.9927736353   -2.1044403436   -0.3714735702
C       -3.2325462512   -2.9062300327   -0.7398689763
O       -1.4132207524   -2.3549658378    0.6803912698
S       -2.0429734272   -0.8883556078   -2.9482296036
H        0.5648518074    1.5240923838   -2.0538889933
H        0.0161332174   -0.1085818346   -0.0237054087
H       -0.8811924583    1.0094457660   -4.1393194151
H       -3.0749224913   -3.4254941125   -1.6884957565
H       -4.0909355427   -2.2354612004   -0.8300448301
H       -3.4416989034   -3.6469706087    0.0371163520
14   

C       -0.1398164793    0.6900885428   -2.1089585864
C       -0.4399870213   -0.2006549647   -0.9985703237
C       -0.9905844899    0.5043920172   -3.1687795853
C       -1.5113528857   -1.0332458531   -1.2567245076
C       -2.0595452104   -2.0468075813   -0.3281696986
C       -3.2471024007   -2.9084735533   -0.7313969714
O       -1.5579644205   -2.2042578899    0.7805844471
S       -2.1843267293   -0.7532260278   -2.8630439515
H        0.6659880955    1.4164163430   -2.0948077047
H        0.1140097577   -0.2147991989   -0.0643727655
H       -0.9406155943    1.0650208879   -4.0948317768
H       -3.0057988853   -3.4743174116   -1.6348769345
H       -4.1173810346   -2.2746323319   -0.9200785959
H       -3.4877624600   -3.6107182730    0.0717769965
14   

C       -0.1163769598    0.6570554195   -2.1053010602
C       -0.4080271488   -0.2373615760   -0.9956183574
C       -1.0575499320    0.5752213241   -3.0997010525
C       -1.5708550505   -0.9584949081   -1.1821617379
C       -2.1055814874   -1.9836147615   -0.2573902270
C       -3.2521732650   -2.8900141885   -0.6810361376
O       -1.6743232407   -2.0663163370    0.8881755346
S       -2.3310299598   -0.5826812182   -2.7289872439
H        0.7491464278    1.3104056751   -2.1381761755
H        0.2186514407   -0.3355390766   -0.1139117522
H       -1.0287168709    1.1556441924   -4.0143885857
H       -2.9274337836   -3.5338446681   -1.5025738277
H       -4.1056565239   -2.2891038048   -1.0047846750
H       -3.5615527054   -3.5171623281    0.1598651725
14   

C       -0.1007583393    0.6161588448   -2.1180498964
C       -0.3999016519   -0.2788660712   -1.0108762343
C       -1.1034390161    0.6379024072   -3.0535970614
C       -1.6328272759   -0.8873203105   -1.1334554190
C       -2.1730206403   -1.9205873837   -0.2173056566
C       -3.2533731853   -2.8840213339   -0.6872201668
O       -1.8476585908   -1.9289745745    0.9647551831
S       -2.4467458575   -0.4167744099   -2.6260383351
H        0.8140485816    1.1946942304   -2.1923000309
H        0.2729791441   -0.4597495834   -0.1777641954
H       -1.0804390740    1.2358753451   -3.9570786553
H       -2.8415885771   -3.5519636389   -1.4483117321
H       -4.0974254164   -2.3312959057   -1.1067183666
H       -3.6097321510   -3.4837857156    0.1550591346
14   

C       -0.0789113397    0.5552057351   -2.1162827026
C       -0.3906852830   -0.3332301495   -1.0072601032
C       -1.1271143491    0.6797065793   -2.9918709720
C       -1.6771755629   -0.8264753962   -1.0631013315
C       -2.2433077816   -1.8538892055   -0.1488016513
C       -3.2314305617   -2.8866571227   -0.6712892133
O       -2.0537401969   -1.7811944517    1.0589874196
S       -2.5295168415   -0.2647497585   -2.5014056470
H        0.8764891275    1.0553464357   -2.2353406019
H        0.3129998866   -0.5921976075   -0.2217876771
H       -1.1043732498    1.2907989333   -3.8865436913
H       -2.7231785707   -3.5563928281   -1.3699551652
H       -4.0625366513   -2.3938339397   -1.1811887120
H       -3.6282111672   -3.4769435983    0.1595308675
14   

C       -0.0697359623    0.4863267270   -2.1249504223
C       -0.3906636079   -0.4092954432   -1.0242410757
C       -1.1551089551    0.7332779250   -2.9260737335
C       -1.7159660733   -0.7826698754   -1.0095420520
C       -2.3234443515   -1.7980050239   -0.0974803990
C       -3.1978793861   -2.9049330282   -0.6682824997
O       -2.2862138867   -1.6511708156    1.1159005964
S       -2.6034591195   -0.0995349395   -2.3714283077
H        0.9175121849    0.9041095814   -2.2920383973
H        0.3358655409   -0.7572731116   -0.2963466474
H       -1.1337501314    1.3706175269   -3.8022809751
H       -2.5736417996   -3.6117931612   -1.2211105803
H       -3.9516019922   -2.4882535240   -1.3402668964
H       -3.7034693517   -3.4373957132    0.1422323046
14   

C       -0.0598546315    0.4199647972   -2.1742496989
C       -0.3938758657   -0.4943642497   -1.0927200614
C       -1.1654857900    0.8027580810   -2.8902006060
C       -1.7418161475   -0.7495755374   -1.0120213468
C       -2.4115914334   -1.7288531260   -0.0910236035
C       -3.1277671615   -2.9364316156   -0.6759225313
O       -2.5471705920   -1.4862142054    1.0974299167
S       -2.6478927198    0.0782006408   -2.2763456724
H        0.9494034032    0.7556012972   -2.3884114805
H        0.3407719506   -0.9339462229   -0.4253620124
H       -1.1398794833    1.4779457825   -3.7374662217
H       -2.3890582735   -3.6746273438   -0.9986764251
H       -3.7338018925   -2.6382277316   -1.5346665835
H       -3.7777349396   -3.3888448544    0.0782443843
14   

C       -0.6041023536    1.0088723058   -2.0884546919
C       -1.1464987589    0.3438660674   -0.9131341308
C       -0.4984926450    0.1611490284   -3.1621678219
C       -1.4240385114   -0.9810423145   -1.1402192483
C       -2.0007126556   -1.9753138371   -0.1647514271
C       -1.0660547905   -2.7488596491    0.7499697407
O       -3.2050976050   -2.1360297022   -0.0667222928
S       -1.0504832520   -1.4688926516   -2.7896825783
H       -0.3218931721    2.0562112637   -2.1112924957
H       -1.3209019388    0.8425368846    0.0349028648
H       -0.1233075028    0.4534468906   -4.1358954588
H       -0.4223149846   -2.0523314736    1.2931274846
H       -0.4438954859   -3.4212203517    0.1537750377
H       -1.6442870575   -3.3370573044    1.4680566351
14   

C       -0.4828020133    0.9726512541   -2.0560987595
C       -0.9474172067    0.2149028808   -0.9040266189
C       -0.5235910182    0.2359083295   -3.2127248042
C       -1.2838391138   -1.0800864315   -1.2256654796
C       -1.9347339465   -2.0913443136   -0.3261043314
C       -1.2099076892   -2.5396731622    0.9331352626
O       -3.1124617685   -2.3836764894   -0.4572348947
S       -1.1135034056   -1.4019292519   -2.9481668090
H       -0.1571766278    2.0063474199   -2.0061112159
H       -1.0452071412    0.6368428701    0.0909491306
H       -0.2332837333    0.6119570294   -4.1866818914
H       -0.6231573797   -1.7149433436    1.3449586919
H       -0.5384411611   -3.3667765949    0.6885203226
H       -1.9316854950   -2.8741357420    1.6833666621
14   

C       -0.4198235676    0.9280644668   -2.0359186137
C       -0.8243100039    0.1375057862   -0.8833355230
C       -0.6014256387    0.2549168427   -3.2172403584
C       -1.2573627321   -1.1247078004   -1.2333179558
C       -1.8960043232   -2.1382527483   -0.3434972628
C       -1.2715882689   -2.4482454050    1.0091473566
O       -3.0198234132   -2.5627668352   -0.5726440856
S       -1.2542144616   -1.3627452923   -2.9785532696
H       -0.0351504835    1.9402122917   -1.9676584300
H       -0.8151099614    0.5191930565    0.1322278791
H       -0.3772180503    0.6654121405   -4.1947326015
H       -0.8218435335   -1.5504556660    1.4389969567
H       -0.4966287857   -3.2087433991    0.8828868268
H       -2.0339036458   -2.8263701547    1.6959526047
14   

C       -0.3869877311    0.8951683621   -2.0365415374
C       -0.7374800805    0.0719919908   -0.8891600050
C       -0.6923592612    0.2856626685   -3.2264889317
C       -1.2639674749   -1.1519888433   -1.2544037807
C       -1.8611434866   -2.1918134354   -0.3796199062
C       -1.3019759041   -2.4191576397    1.0176821702
O       -2.9082092892   -2.7510237967   -0.6832084283
S       -1.4026447836   -1.3096147537   -3.0044224519
H        0.0521133727    1.8841140228   -1.9573783050
H       -0.6192254805    0.4065312702    0.1359068595
H       -0.5243136085    0.7290033701   -4.2008999786
H       -1.0969035146   -1.4656801753    1.5090420368
H       -0.3751037351   -2.9944261511    0.9477103738
H       -2.0221615466   -2.9779828138    1.6219179957
14   

C       -0.3418897776    0.8780883693   -2.0289523432
C       -0.6420081041    0.0209014014   -0.8923394750
C       -0.8043107055    0.3565628396   -3.2098164332
C       -1.3014107853   -1.1379791521   -1.2575414775
C       -1.8598170092   -2.1968289221   -0.3906537969
C       -1.3182698091   -2.3866511802    1.0183772388
O       -2.8383137072   -2.8506162734   -0.7374369261
S       -1.6104988412   -1.1930565994   -2.9929182934
H        0.1789548909    1.8263984219   -1.9481738906
H       -0.3876749667    0.2823165247    0.1294033383
H       -0.6948151320    0.8372588595   -4.1748109102
H       -1.4095908889   -1.4559769111    1.5834927634
H       -0.2664292429   -2.6802304507    0.9697057681
H       -1.8818978796   -3.1701133037    1.5328620916
14   

C       -0.3106749585    0.8585074079   -2.0502741359
C       -0.5657069667   -0.0318939899   -0.9283241354
C       -0.8747274456    0.4031316643   -3.2139653480
C       -1.3066916913   -1.1437342377   -1.2849035480
C       -1.8115499548   -2.2397516592   -0.4379145525
C       -1.3183529852   -2.3825094336    0.9941206068
O       -2.6770608332   -3.0098379120   -0.8449375615
S       -1.7297565594   -1.1199376376   -2.9976686808
H        0.2564806135    1.7800949897   -1.9721014317
H       -0.2153539171    0.1697776894    0.0785082367
H       -0.8099095048    0.9157665367   -4.1664790285
H       -1.5457652467   -1.4742964560    1.5578320838
H       -0.2382630753   -2.5505667787    0.9958596488
H       -1.8107440637   -3.2319582162    1.4759602056
14   

C       -0.3066940163    0.8648441032   -2.0602555180
C       -0.5085707788   -0.0624512893   -0.9575424371
C       -0.9773870426    0.4801469691   -3.1923646926
C       -1.3294720944   -1.1237153871   -1.2930204723
C       -1.7724029326   -2.2610624425   -0.4683687259
C       -1.3152706788   -2.3771646233    0.9779171151
O       -2.5113566758   -3.1274156332   -0.9287933249
S       -1.8767176899   -1.0158033865   -2.9672962586
H        0.3050264341    1.7583421823   -1.9927376174
H       -0.0581439149    0.0739014688    0.0200624095
H       -0.9632008457    1.0275665826   -4.1274636937
H       -1.6493077620   -1.5027396589    1.5422309085
H       -0.2247700067   -2.4400430772    1.0167069042
H       -1.7394452773   -3.2768228728    1.4327478575
