35

C      6.16005   -1.98765    7.74889
C      5.40105   -0.21864    5.57879
C      5.13759    0.41841    4.36232
C      3.31466   -1.41432    5.40264
C      4.49395   -1.13669    6.10766
C      3.95352    0.15090    3.66417
C      3.03164   -0.78125    4.19643
C      0.21378    1.29376    2.56149
C     -0.33696   -0.01057    1.91280
C      0.56229    0.92611    4.02591
C     -0.44436   -1.03267    3.06582
C      0.64651   -0.60405    4.04339
C      4.50524    1.67032    1.90704
C      4.71792   -1.81369    7.44117
N      7.27642   -2.14052    8.03626
O      4.07534   -1.04252    8.46405
O      1.89996   -1.08003    3.48167
O      3.60236    0.72977    2.48134
H      6.32511    0.00231    6.10511
H      5.86110    1.12399    3.97059
H      2.59932   -2.13654    5.78822
H      1.10793    1.63160    2.03400
H     -0.51656    2.10768    2.52461
H     -1.29905    0.14297    1.41520
H      0.36526   -0.37962    1.16104
H      1.48134    1.39657    4.38485
H     -0.24135    1.22814    4.70787
H     -1.41368   -0.95068    3.57139
H     -0.31681   -2.06976    2.74425
H      0.52546   -1.02728    5.04779
H      4.03559    2.00327    0.98070
H      5.47228    1.20659    1.67784
H      4.65902    2.53256    2.56742
H      4.28773   -2.82411    7.40422
H      4.19661   -1.49801    9.31487
