35

C      3.51123   -0.89348    8.31207
C      5.73564   -0.23454    5.56026
C      5.69845    0.21392    4.23440
C      3.45933   -1.03891    5.32787
C      4.61670   -0.86526    6.10255
C      4.55430    0.05249    3.45760
C      3.40856   -0.57455    4.01207
C      0.00489    1.14014    3.58587
C     -0.30181    0.35382    2.27694
C      0.46538    0.08365    4.61508
C      0.07527   -1.11874    2.57287
C      1.04074   -1.04763    3.75534
C      4.41817   -0.37229    1.11772
C      4.65250   -1.40443    7.51994
N      2.61928   -0.45542    8.91438
O      4.58365   -2.83505    7.57357
O      2.32436   -0.67445    3.19509
O      4.54274    0.57752    2.18885
H      6.63001   -0.08632    6.16021
H      6.55214    0.71251    3.78485
H      2.59588   -1.51390    5.77854
H      0.80633    1.86295    3.41196
H     -0.86109    1.70038    3.94880
H     -1.35108    0.44072    1.98099
H      0.29810    0.74252    1.45015
H      1.17681    0.47535    5.34538
H     -0.38700   -0.31755    5.17573
H     -0.80444   -1.69128    2.88629
H      0.52141   -1.63626    1.71945
H      1.13934   -2.00488    4.27822
H      4.48620    0.20764    0.19549
H      3.45917   -0.89435    1.15895
H      5.24072   -1.09747    1.15441
H      5.56801   -1.04943    8.01295
H      5.13882   -3.16642    6.84839
