27   

C       -1.6593443581   -0.4133528491    1.7487585023
C       -0.5849496692   -0.6254107830    0.8657588993
C       -2.4634089562   -1.4907446090    2.1525938465
C       -0.3101703979   -1.9135741951    0.3831779019
C       -2.1789722033   -2.7713288123    1.6663590641
C       -1.1217042465   -2.9713689523    0.7980862500
C       -2.8842546089   -4.0204125736    1.9706939805
C       -2.2416826896   -7.1384680975    2.7179635747
C       -2.7253462448   -8.2178324353    3.4071552909
C       -2.8697131865   -6.4889223063    1.5006027502
C       -3.6649704999   -8.2393293566    4.5758054572
N       -2.3453917981   -5.1457438756    1.3859998818
O       -3.8742099843   -4.0699479428    2.6867318433
O       -1.3416710332   -4.9652634657   -1.0488784398
O        0.2263956697   -5.3419533807    0.8257091509
S       -1.0255475264   -4.7216400000    0.3663167859
Br      -2.7333409581   -8.8260797196    6.2247848579
H       -1.8673737609    0.5840879021    2.1204731047
H        0.0352012072    0.2084417834    0.5561846823
H       -3.2947556652   -1.3431747978    2.8352890669
H        0.5176784285   -2.0869723850   -0.2983643336
H       -1.1585338386   -7.0634378362    2.6963433585
H       -1.9766124989   -8.9960132564    3.5193500565
H       -2.6334906503   -7.0694676583    0.6014678713
H       -3.9607038340   -6.4684906959    1.6041265228
H       -4.5022963257   -8.9113544953    4.3657368340
H       -4.0698065739   -7.2346372948    4.7352608217
27   

C       -1.6973622869   -0.5310371935    1.9749612217
C       -0.6662528407   -0.6359359381    1.0237100167
C       -2.4514491856   -1.6620388515    2.3260279347
C       -0.3844555095   -1.8702818575    0.4203714840
C       -2.1615991714   -2.8883835897    1.7184062753
C       -1.1457645232   -2.9824800583    0.7846071524
C       -2.8211824032   -4.1790060480    1.9454883165
C       -2.0467048257   -7.2578584616    2.4638357716
C       -2.6513860754   -8.1200049121    3.3244266904
C       -2.7363604555   -6.6033213883    1.2859784176
C       -3.6231053601   -7.7431052720    4.4029102130
N       -2.3048316317   -5.2263037410    1.2147010706
O       -3.7597029653   -4.3262056652    2.7159170349
O       -1.3822551070   -4.8109618635   -1.2233857172
O        0.2511865025   -5.3148366649    0.5624824519
S       -1.0269932053   -4.6849546644    0.1979504020
Br      -2.8999386775   -8.2023977843    6.1903338335
H       -1.9108878274    0.4253526538    2.4396984672
H       -0.0851564812    0.2390583346    0.7545050327
H       -3.2494951738   -1.5965506574    3.0592867187
H        0.4098928246   -1.9614160091   -0.3149611055
H       -0.9938930461   -7.4459095786    2.2769383394
H       -2.0383400312   -8.9730578037    3.5982197908
H       -2.4660497156   -7.1261225712    0.3613582115
H       -3.8253530305   -6.6655101050    1.3939018974
H       -4.5722961483   -8.2633871883    4.2448300272
H       -3.8177786929   -6.6659961860    4.3620249409
27   

C       -1.7310369884   -0.5682630932    2.0081668003
C       -0.7074697805   -0.6644470759    1.0479123989
C       -2.4760022423   -1.7044701995    2.3615386672
C       -0.4241106854   -1.8952780779    0.4379617056
C       -2.1842851647   -2.9271759251    1.7474712927
C       -1.1761116587   -3.0129778143    0.8048597465
C       -2.8337290783   -4.2221201369    1.9773970601
C       -1.9698437133   -7.3268292010    2.4280738735
C       -2.5490292786   -8.0933561616    3.3796831040
C       -2.7368325766   -6.6469510953    1.3158672500
C       -3.5952139010   -7.6188412301    4.3421323613
N       -2.3078005605   -5.2683014595    1.2518227461
O       -3.7741906168   -4.3719089098    2.7446646116
O       -1.4354301325   -4.8394048124   -1.2017473829
O        0.2374219660   -5.3322969933    0.5501209874
S       -1.0535664508   -4.7134979420    0.2127051286
Br      -3.0243870372   -7.9532047009    6.2101255978
H       -1.9456371508    0.3852639165    2.4782881945
H       -0.1333642536    0.2146145070    0.7769859311
H       -3.2678785174   -1.6458913675    3.1020672036
H        0.3645169821   -1.9795537100   -0.3042840328
H       -0.9407380011   -7.5647972257    2.1773319079
H       -1.9319321551   -8.9031560918    3.7562841709
H       -2.5279809911   -7.1457652799    0.3625316628
H       -3.8167202622   -6.7130016843    1.4916903710
H       -4.5384493231   -8.1380246314    4.1489626648
H       -3.7666795301   -6.5459873396    4.2083666232
27   

C       -1.7179387281   -0.5735016710    2.0086292473
C       -0.6833880919   -0.6719351042    1.0604844114
C       -2.4717157539   -1.7073346067    2.3502186972
C       -0.3977512060   -1.9027167188    0.4512042775
C       -2.1771268755   -2.9298925530    1.7371689925
C       -1.1584208794   -3.0183313707    0.8066739189
C       -2.8331941859   -4.2225975465    1.9585854910
C       -1.9139682684   -7.3823695393    2.3238916754
C       -2.4306474994   -8.0452002873    3.3765805128
C       -2.7408742559   -6.6487247590    1.2927283878
C       -3.5128365205   -7.5291997523    4.2711740701
N       -2.2874320702   -5.2758346987    1.2577859790
O       -3.7976488461   -4.3610838886    2.6972651699
O       -1.4254343633   -4.8447988512   -1.1982595606
O        0.2569365729   -5.3359790064    0.5444321422
S       -1.0368818494   -4.7190963405    0.2144257831
Br      -2.9942551171   -7.7389229669    6.1718154092
H       -1.9340629192    0.3796922204    2.4787644122
H       -0.1024834329    0.2053894641    0.7986139699
H       -3.2717969837   -1.6473370274    3.0818006146
H        0.3994128040   -1.9885412204   -0.2816419824
H       -0.9200569923   -7.6753680246    2.0002236409
H       -1.7946098442   -8.8119065156    3.8078496905
H       -2.6037028497   -7.1109751449    0.3084620473
H       -3.8084112786   -6.7048420980    1.5345678080
H       -4.4405831201   -8.0774923714    4.0836109325
H       -3.6984302039   -6.4705675714    4.0692609503
27   

C       -1.9746308334   -0.7051138945    2.1278079108
C       -0.7381274469   -0.8435083820    1.4714462200
C       -2.8418572234   -1.8033823849    2.2363737724
C       -0.3632905019   -2.0791607743    0.9232903932
C       -2.4575912874   -3.0302422345    1.6851667106
C       -1.2402562676   -3.1586609419    1.0433245641
C       -3.2052710871   -4.2911374354    1.7031468675
C       -2.1571289470   -7.5717021588    2.0648653072
C       -2.3978157972   -7.7584959459    3.3742464612
C       -3.0106001597   -6.7364544473    1.1307532560
C       -3.0757600150   -6.7780394567    4.2713249015
N       -2.5450311839   -5.3655512517    1.1467624197
O       -4.3344224882   -4.3878937680    2.1644681225
O       -1.0815213259   -4.9399792565   -1.0059818882
O        0.1087643724   -5.5288170197    1.0749206944
S       -1.0476472077   -4.8570640658    0.4623836034
Br      -1.7881036992   -5.3828864325    4.8456842845
H       -2.2588357543    0.2507488818    2.5540377454
H       -0.0693397368    0.0059371005    1.3898627785
H       -3.7970169384   -1.7140948382    2.7446208924
H        0.5904715252   -2.1971946884    0.4172895782
H       -1.4570851554   -8.2514862693    1.5906196274
H       -1.9065728467   -8.5941500274    3.8614129834
H       -2.9492955914   -7.1353668435    0.1120191472
H       -4.0618776964   -6.7927173595    1.4350922003
H       -3.4542012734   -7.2967027777    5.1572936773
H       -3.9304550809   -6.3180359427    3.7676713299
27   

C       -1.9824688969   -0.6791605850    2.1361279988
C       -0.7310962587   -0.8400346276    1.5139923061
C       -2.8600424832   -1.7688968805    2.2459726097
C       -0.3521161145   -2.0894905747    1.0007678621
C       -2.4708775589   -3.0097112117    1.7306228050
C       -1.2398331651   -3.1602177162    1.1209449745
C       -3.2258449424   -4.2655691923    1.7606046620
C       -2.2348967566   -7.6262595508    2.0767802459
C       -2.3187894407   -7.6971203570    3.4142937828
C       -3.0630308951   -6.7144554534    1.1926525079
C       -2.9906768944   -6.6989378142    4.2918111794
N       -2.5512653136   -5.3612148076    1.2656007910
O       -4.3697844923   -4.3422666009    2.1880001756
O       -1.0728461404   -4.9894158655   -0.8851133790
O        0.1036710053   -5.5323877192    1.2162441327
S       -1.0473137035   -4.8725916288    0.5812031082
Br      -1.6900347026   -5.3144777776    4.8615834586
H       -2.2699988302    0.2872618777    2.5355086723
H       -0.0540024474    0.0027674021    1.4321177197
H       -3.8264712955   -1.6625974365    2.7290531354
H        0.6131900195   -2.2247476162    0.5217388380
H       -1.6186664619   -8.3648503364    1.5751866992
H       -1.7878885397   -8.5031304665    3.9097250096
H       -3.0242230304   -7.0673158251    0.1559311787
H       -4.1131112084   -6.7503228709    1.5040080169
H       -3.3790754207   -7.2040530465    5.1812735515
H       -3.8400564040   -6.2353761001    3.7835421181
27   

C       -2.0084016716   -0.7522403426    1.9731369765
C       -0.7347617187   -0.9230990044    1.4008556458
C       -2.8864897280   -1.8421428930    2.0758696962
C       -0.3341376849   -2.1826675176    0.9303561180
C       -2.4753338151   -3.0929804937    1.6037291297
C       -1.2228889335   -3.2534410355    1.0424913299
C       -3.2266320685   -4.3506071196    1.6371186400
C       -2.2692075878   -7.7437422477    1.9987581456
C       -2.2338723811   -7.6932647892    3.3386759876
C       -3.0522741555   -6.8047697322    1.1019614710
C       -2.9553844133   -6.7084033778    4.1876168472
N       -2.5283447071   -5.4574985116    1.2033324466
O       -4.3863556996   -4.4205532994    2.0209223742
O       -0.9916367337   -5.1302377693   -0.9125939123
O        0.1280297880   -5.6158853519    1.2335443101
S       -1.0075549738   -4.9776742039    0.5506179170
Br      -1.7076633371   -5.2869994800    4.7833586951
H       -2.3127703691    0.2219460834    2.3398540931
H       -0.0572287215   -0.0801199855    1.3247580981
H       -3.8699910676   -1.7283589954    2.5213558991
H        0.6484544054   -2.3255522305    0.4903083593
H       -1.6943324612   -8.5239573698    1.5113722155
H       -1.6521433326   -8.4505721369    3.8535217960
H       -2.9848141081   -7.1459361601    0.0627556568
H       -4.1124218629   -6.8316034953    1.3781248220
H       -3.3521934052   -7.2184327976    5.0705252454
H       -3.8051247783   -6.2716974041    3.6569747261
27   

C       -1.9603462942   -0.3548636903    1.7552225217
C       -0.6739517314   -0.5417621296    1.2175268228
C       -2.8398462281   -1.4421897983    1.8718322052
C       -0.2619937839   -1.8148173810    0.7955623527
C       -2.4172874681   -2.7064716613    1.4481315298
C       -1.1524453230   -2.8827402443    0.9206264173
C       -3.1681534746   -3.9634500866    1.5039518846
C       -2.2552179313   -7.3651411131    1.9663081283
C       -2.1016192111   -7.1818079637    3.2863494365
C       -2.9901478444   -6.4281046657    1.0259263298
C       -2.8697100749   -6.2190266955    4.1176706388
N       -2.4592177412   -5.0829385038    1.1228547414
O       -4.3360377582   -4.0234189160    1.8639546417
O       -0.8784374355   -4.8199311882   -0.9690140046
O        0.1958237801   -5.2362254778    1.2146859965
S       -0.9253884310   -4.6213099386    0.4880140128
Br      -1.6850157817   -4.7433948765    4.7094624985
H       -2.2735446949    0.6297959919    2.0846302047
H        0.0046404923    0.2993252345    1.1307572216
H       -3.8331948481   -1.3160331682    2.2913915267
H        0.7304739380   -1.9700345539    0.3827114297
H       -1.7149837364   -8.1882398850    1.5109243743
H       -1.4638961002   -7.8817666896    3.8158881681
H       -2.8856239038   -6.7863687118   -0.0044580731
H       -4.0606356706   -6.4411747942    1.2600282450
H       -3.2525768658   -6.7357704933    5.0028222362
H       -3.7318136998   -5.8222166595    3.5752937395
27   

C       -2.0010852616   -0.5283490924    1.8594644445
C       -0.7087192224   -0.7163708989    1.3367083334
C       -2.8867373476   -1.6126197234    1.9547462217
C       -0.2972458197   -1.9873641789    0.9078054265
C       -2.4642534518   -2.8747674485    1.5247132164
C       -1.1941741350   -3.0522401280    1.0109334516
C       -3.2209379154   -4.1286396852    1.5605901594
C       -2.4339083145   -7.5649492623    1.9927746249
C       -2.1354359815   -7.3151813326    3.2784786854
C       -3.0652661811   -6.5799642881    1.0241176187
C       -2.8704591038   -6.3674081115    4.1556929217
N       -2.5117295077   -5.2496348357    1.1837664358
O       -4.3937516213   -4.1850803620    1.9048614108
O       -0.9173880691   -4.9729242339   -0.8950473326
O        0.1417046590   -5.4153301995    1.2908547483
S       -0.9720343392   -4.7878835800    0.5635288691
Br      -1.6636792910   -4.9081935240    4.7432119186
H       -2.3141725488    0.4546273585    2.1939891093
H       -0.0252285031    0.1223039791    1.2668255603
H       -3.8847737513   -1.4858961808    2.3628974665
H        0.6997476040   -2.1433254969    0.5063551773
H       -1.9793175884   -8.4429592363    1.5466126251
H       -1.4768733710   -8.0173380113    3.7788185994
H       -2.8963756432   -6.9207349929   -0.0037334361
H       -4.1502474750   -6.5670666042    1.1776937237
H       -3.2265222210   -6.9022273909    5.0412923343
H       -3.7478787799   -5.9573532246    3.6482020445
27   

C       -2.0837666433   -0.4478354307    1.9526621743
C       -0.7878245273   -0.6395971492    1.4402465174
C       -2.9868771444   -1.5205496064    2.0026354599
C       -0.3904344730   -1.9026222934    0.9757406444
C       -2.5781242386   -2.7748360948    1.5378019000
C       -1.3048227096   -2.9560357370    1.0332489990
C       -3.3531153017   -4.0177399367    1.5285285016
C       -2.7331514256   -7.4575460379    1.9556633202
C       -2.2824635722   -7.1638540464    3.1889700416
C       -3.2287078952   -6.4540594694    0.9251220536
C       -2.9451420919   -6.2134980658    4.1228458576
N       -2.6556929789   -5.1377969461    1.1279424455
O       -4.5288645064   -4.0677761770    1.8637179139
O       -1.0418394215   -4.8212315149   -0.9293452714
O       -0.0062357352   -5.3480535078    1.2487913840
S       -1.1044792488   -4.6804450295    0.5338183941
Br      -1.6767346233   -4.7926631882    4.6722820428
H       -2.3860308583    0.5287575172    2.3147162394
H       -0.0906149168    0.1899355510    1.4061781831
H       -3.9877164076   -1.3914036016    2.4031074448
H        0.6092938022   -2.0614439388    0.5823695719
H       -2.3940088893   -8.4002093140    1.5398661939
H       -1.6230820323   -7.8885826425    3.6549080355
H       -2.9747872553   -6.8092441866   -0.0801563246
H       -4.3224260316   -6.4030410483    0.9713881105
H       -3.2668101243   -6.7562044132    5.0167809337
H       -3.8376984101   -5.7750702631    3.6675715822
27   

C       -2.2743712310   -0.6511545326    1.8374739623
C       -0.9921980337   -0.8231429784    1.2849886839
C       -3.1777875268   -1.7242161234    1.8668037890
C       -0.6092313956   -2.0663821267    0.7587551974
C       -2.7830273752   -2.9588275643    1.3412492075
C       -1.5238108653   -3.1205555518    0.7960003142
C       -3.5582304646   -4.2008777515    1.3070399934
C       -3.1309207005   -7.5813606233    1.7597626086
C       -2.5016044253   -7.2935892970    2.9190447598
C       -3.4490403754   -6.6155622683    0.6299927328
C       -2.9889088981   -6.3056740845    3.9238525774
N       -2.8701232073   -5.3057106141    0.8526511725
O       -4.7238902831   -4.2646328608    1.6737949681
O       -1.3318272919   -4.9076417778   -1.2465215221
O       -0.2193145254   -5.5208101593    0.8697576906
S       -1.3410038312   -4.8242106717    0.2222955631
Br      -1.5835789363   -4.9671602416    4.3245624341
H       -2.5653937906    0.3099669096    2.2470414778
H       -0.2942851926    0.0062991678    1.2679072888
H       -4.1675417330   -1.6109452262    2.2984322096
H        0.3800586791   -2.2098661837    0.3344175463
H       -2.9872518744   -8.5980584018    1.4103786519
H       -1.8943716566   -8.0869920056    3.3419991068
H       -3.0831810006   -7.0263565152   -0.3180051578
H       -4.5369626345   -6.5265558359    0.5319704123
H       -3.2402014566   -6.8315237653    4.8498682880
H       -3.8984192153   -5.8112619787    3.5705627888
27   

C       -2.3235439104   -0.7263390786    1.8624208660
C       -1.0395039784   -0.8697639583    1.3061242935
C       -3.2213271197   -1.8043893871    1.8480017289
C       -0.6488612048   -2.0892367420    0.7321110940
C       -2.8191808774   -3.0153354926    1.2752514547
C       -1.5576212250   -3.1490068050    0.7261423363
C       -3.5869413853   -4.2599807833    1.1948671710
C       -3.2988511479   -7.4975833474    1.7644863918
C       -2.5669806135   -7.2211404201    2.8736703033
C       -3.4332301542   -6.6682588729    0.5019962997
C       -2.9247399161   -6.2130769203    3.9160057398
N       -2.8942304075   -5.3371051130    0.6866858582
O       -4.7473467625   -4.3510023299    1.5724255437
O       -1.3393286820   -4.8560767024   -1.3823234958
O       -0.2457650226   -5.5493610538    0.7188507413
S       -1.3619012327   -4.8287723588    0.0883894076
Br      -1.4409263433   -4.9288550134    4.1847703462
H       -2.6201888243    0.2163232163    2.3091306943
H       -0.3458433981   -0.0367871147    1.3234596306
H       -4.2121823364   -1.7134544550    2.2823136957
H        0.3421354409   -2.2107423099    0.3049481684
H       -3.3510135428   -8.5560921273    1.5340710472
H       -2.0290188916   -8.0659520876    3.2908333837
H       -2.9255604636   -7.1713933851   -0.3288876682
H       -4.4924308922   -6.5946939465    0.2303023203
H       -3.1160442501   -6.7263862951    4.8632067210
H       -3.8400086258   -5.6826929725    3.6362581103
27   

C       -2.1639309241   -0.5936549631    2.1245602994
C       -0.8589139321   -0.7055493328    1.6115673338
C       -3.0413846634   -1.6868203946    2.0620592289
C       -0.4261355020   -1.9091661257    1.0349228661
C       -2.5984938157   -2.8813110811    1.4847631686
C       -1.3147318871   -2.9844325349    0.9820653979
C       -3.3442755708   -4.1353124404    1.3500738970
C       -3.1001779352   -7.1964923238    2.0838930992
C       -2.3578907102   -6.8922710436    3.1893321627
C       -3.0793036541   -6.5504790748    0.7129626751
C       -2.7244262811   -5.9153196324    4.2602966305
N       -2.6348442328   -5.1752936520    0.7899056924
O       -4.5053516212   -4.2602755209    1.7159605952
O       -0.9150366736   -4.6463391015   -1.1352180675
O       -0.0008309374   -5.3823939027    1.0356701074
S       -1.0617665847   -4.6494751399    0.3285382082
Br      -1.2831301791   -4.5782205717    4.4946325960
H       -2.4930024307    0.3368155543    2.5739857131
H       -0.1816843485    0.1393491166    1.6644787095
H       -4.0488068263   -1.6194370565    2.4609395053
H        0.5810959139   -2.0067445755    0.6408277573
H       -3.2919067181   -8.2587570633    1.9792720113
H       -1.8316007821   -7.7407303380    3.6139796830
H       -2.4243231271   -7.1234164495    0.0466767704
H       -4.0858362089   -6.5790670377    0.2806612208
H       -2.8678731323   -6.4466662959    5.2060713937
H       -3.6650614181   -5.4148471255    4.0088407304
