18   

C        4.6331489557    1.3459722435    0.7538183359
C        5.8139907343    1.1162716699    0.0578439604
C        3.5008874128    0.5758692131    0.4819786556
C        5.8525191944    0.1176163608   -0.9129831249
C        3.5148812075   -0.4449182471   -0.4880718959
C        4.7243040955   -0.6614947130   -1.1988640407
C        2.2836726517   -1.2595635898   -0.7409971179
C        0.9255132125   -0.7892422524   -0.2311503026
O        2.3102354744   -2.3131859061   -1.3628699842
O        4.8394502863   -1.6001087987   -2.1827803685
H        4.5933087909    2.1217185912    1.5103739686
H        6.6964254099    1.7112887322    0.2677202942
H        2.6063407929    0.7855760726    1.0569106800
H        6.7762154712   -0.0470308996   -1.4536462167
H        0.7670969529    0.2586429495   -0.4992965676
H        0.8758648741   -0.9036685724    0.8547637526
H        0.1296915394   -1.3874177874   -0.6844089670
H        5.7506974250   -1.6457514398   -2.5119243022
18   

C        4.6560720307    1.3455002742    0.7980864926
C        5.8087066874    1.1619621952    0.0407735269
C        3.5350944513    0.5453601376    0.5677991315
C        5.8294911645    0.1814568509   -0.9507643327
C        3.5390812337   -0.4554416673   -0.4197620245
C        4.7108292040   -0.6248425139   -1.1941939074
C        2.3294741382   -1.3189268933   -0.6179731070
C        0.9406437325   -0.7750286176   -0.3057239717
O        2.4123600260   -2.4711546229   -1.0185709282
O        4.7846255979   -1.5399450966   -2.2039743677
H        4.6309738481    2.1060786724    1.5704842973
H        6.6827895044    1.7791406576    0.2191880194
H        2.6587921127    0.7057303817    1.1858787789
H        6.7286194738    0.0543170220   -1.5406949250
H        0.8585709933    0.2596012212   -0.6492617206
H        0.7583992901   -0.8184454002    0.7710679156
H        0.1829331232   -1.3739968568   -0.8189723387
H        5.6888867439   -1.5978303640   -2.5507690308
18   

C        4.7236058966    1.2900806240    0.8579609289
C        5.8289615283    1.1403999742    0.0240819465
C        3.5968832321    0.4855203685    0.6732469358
C        5.7968165798    0.1891053513   -0.9967347130
C        3.5526894013   -0.4797736068   -0.3443829146
C        4.6707240687   -0.6193333355   -1.1921514885
C        2.3474367075   -1.3659700565   -0.4960315700
C        0.9502040543   -0.7750503829   -0.3656894031
O        2.4567350047   -2.5681761037   -0.6810882383
O        4.6741182413   -1.5111449589   -2.2252946500
H        4.7408016763    2.0260546469    1.6540197250
H        6.7074983751    1.7604684260    0.1669972799
H        2.7546132283    0.6093642447    1.3450197655
H        6.6581162495    0.0867101248   -1.6450194667
H        0.8937598349    0.1644802734   -0.9218800740
H        0.7197860395   -0.5888425992    0.6860969128
H        0.2119787631   -1.4706904685   -0.7747288007
H        5.5609875841   -1.5831984632   -2.6129035668
18   

C        4.7769616396    1.2316689736    0.9525418596
C        5.8308166938    1.1371716065    0.0451626314
C        3.6523811039    0.4162228940    0.8024124374
C        5.7505628112    0.2283878049   -1.0123178929
C        3.5638512259   -0.4991184923   -0.2538192506
C        4.6258029138   -0.5893716572   -1.1706774780
C        2.3643005783   -1.4049516050   -0.3769963154
C        0.9631906334   -0.8087623684   -0.4041809503
O        2.4840695210   -2.6188476484   -0.3551165292
O        4.5692325944   -1.4487953281   -2.2294475998
H        4.8335868672    1.9317160300    1.7785918818
H        6.7073852650    1.7655604112    0.1612314163
H        2.8511565211    0.4895706871    1.5296131992
H        6.5719455122    0.1659712404   -1.7151800740
H        0.7939804814   -0.3288135499   -1.3717157248
H        0.8460018612   -0.0657392413    0.3877128149
H        0.2178471929   -1.5966133148   -0.2633205679
H        5.4326239608   -1.5044314964   -2.6700831637
18   

C        4.8386257078    1.1837746192    1.0318077126
C        5.8391247970    1.1234480104    0.0622275622
C        3.7104653072    0.3667376636    0.9204153735
C        5.7020285463    0.2466483302   -1.0169377856
C        3.5680907327   -0.5143591444   -0.1557819405
C        4.5729332557   -0.5718902049   -1.1338144085
C        2.3581691156   -1.4159331338   -0.2556184048
C        0.9906648723   -0.8060595570   -0.5242994492
O        2.4380934431   -2.6069932263   -0.0090216900
O        4.4535330976   -1.4055748293   -2.2079335574
H        4.9388035188    1.8590087250    1.8741959257
H        6.7180228170    1.7535687001    0.1470482219
H        2.9441390771    0.4108631870    1.6870672318
H        6.4818006882    0.2098620045   -1.7673926559
H        0.9020943650   -0.5743586199   -1.5889994667
H        0.8687357827    0.1144999178    0.0517294475
H        0.2026521576   -1.5106232575   -0.2442689931
H        5.2844428148   -1.4338337207   -2.7101019255
18   

C        4.9142367172    1.1369593333    1.1193396018
C        5.8512057552    1.1056344066    0.0868139432
C        3.7790521339    0.3245279131    1.0545416343
C        5.6429454162    0.2631490129   -1.0082885207
C        3.5701342767   -0.5278990587   -0.0328433599
C        4.5065762609   -0.5506182190   -1.0771576722
C        2.3326806703   -1.3957109205   -0.1114142168
C        1.0784385961   -0.8460172804   -0.7723220756
O        2.3184521221   -2.5209620057    0.3569035494
O        4.3134659566   -1.3497971888   -2.1669313707
H        5.0674404388    1.7880054456    1.9727147790
H        6.7346539147    1.7333022740    0.1344140266
H        3.0568450118    0.3492429740    1.8638800253
H        6.3722999277    0.2506649546   -1.8085871151
H        1.2780004104   -0.6567856322   -1.8303912209
H        0.7866783372    0.0903330265   -0.2900628710
H        0.2598384330   -1.5659184198   -0.6856045369
H        5.1000017345   -1.3407320306   -2.7372606387
18   

C        4.9701236647    1.0775134718    1.1664757316
C        5.8557072117    1.0796483577    0.0891756997
C        3.8243295764    0.2788919426    1.1243309099
C        5.5867961498    0.2831553750   -1.0270884763
C        3.5543983572   -0.5279086104    0.0145702431
C        4.4399971175   -0.5176555165   -1.0743652748
C        2.2910481144   -1.3567723676   -0.0306313630
C        1.1372970962   -0.9255126253   -0.9244368388
O        2.1822206524   -2.3746476185    0.6332516641
O        4.1962938441   -1.2792286838   -2.1808200736
H        5.1704860807    1.6926067612    2.0365915359
H        6.7469361750    1.6973334814    0.1191520704
H        3.1399477898    0.2782805015    1.9664977432
H        6.2787044147    0.2955178372   -1.8599786875
H        1.4640943787   -0.9007998608   -1.9669948308
H        0.8001092775    0.0722168279   -0.6322960368
H        0.3044955512   -1.6277970359   -0.8292823604
H        4.9509531548   -1.2383924982   -2.7917702931
18   

C        5.0275438970    1.0331201644    1.1988495901
C        5.8693797013    1.0699347566    0.0873065883
C        3.8679040532    0.2546136141    1.1683375815
C        5.5444625760    0.3277479165   -1.0519108370
C        3.5428392847   -0.4978245275    0.0325380724
C        4.3838304226   -0.4537561787   -1.0906134590
C        2.2553888184   -1.2841796603    0.0325155930
C        1.1591129900   -0.9687913053   -0.9756946283
O        2.0621335897   -2.1526924064    0.8700791312
O        4.0927668336   -1.1675913102   -2.2168892465
H        5.2720953540    1.6059342082    2.0863599151
H        6.7711739502    1.6724442575    0.1090975148
H        3.2161624172    0.2267322672    2.0359150282
H        6.2053684467    0.3665630875   -1.9088115017
H        1.4157840978   -1.3922634470   -1.9496847759
H        1.0486530254    0.1141994717   -1.0734577825
H        0.2091335656   -1.3948462906   -0.6416951427
H        4.8195654999   -1.0957417838   -2.8582406104
18   

C        5.0238361864    0.8999920767    1.2659797324
C        5.8416194354    0.9702154056    0.1386765783
C        3.8345499052    0.1689903836    1.2190311664
C        5.4646539710    0.3073213322   -1.0328081812
C        3.4536816969   -0.5034781805    0.0479737210
C        4.2747115657   -0.4279478628   -1.0907943796
C        2.1348636819   -1.2265628262    0.0548249545
C        1.1353180669   -1.0626737253   -1.0823056836
O        1.8274942007   -1.9241431991    1.0129604984
O        3.9434472932   -1.0671395050   -2.2503999879
H        5.3089641515    1.4111590190    2.1786758960
H        6.7657756084    1.5371829141    0.1735389691
H        3.2018534793    0.1189402668    2.0999340545
H        6.1098013681    0.3710748473   -1.9001601218
H        1.3051685036   -1.8365745505   -1.8352861117
H        1.2542597231   -0.0793812776   -1.5448704252
H        0.1156783264   -1.1523491025   -0.6980624902
H        4.6519626142   -0.9606614724   -2.9073073803
18   

C        5.0770858567    0.8538708797    1.2798328080
C        5.8709489739    0.9418146310    0.1379458674
C        3.8596999682    0.1714424311    1.2314795050
C        5.4437160737    0.3423583609   -1.0495380027
C        3.4201689122   -0.4326382186    0.0407205300
C        4.2257619733   -0.3456370144   -1.1122392576
C        2.0824425880   -1.1168180306    0.0737127527
C        1.1450248579   -1.1282069695   -1.1274520394
O        1.6868705618   -1.6163858788    1.1214236485
O        3.8643381055   -0.9313092684   -2.2907166520
H        5.4021334756    1.3140638231    2.2062138888
H        6.8168005912    1.4716844358    0.1745174255
H        3.2517159454    0.1132797168    2.1292577798
H        6.0745881187    0.4160727410   -1.9265514295
H        1.3817881013   -1.9792816179   -1.7712182510
H        1.2539718536   -0.2015536113   -1.6969047262
H        0.1083069512   -1.2131502521   -0.7905182756
H        4.5637840720   -0.8096118480   -2.9547053091
18   

C        5.0830098211    0.7998025689    1.3193374622
C        5.8609611571    0.8893163933    0.1682669615
C        3.8307047940    0.1846207058    1.2692036549
C        5.3831669139    0.3571649397   -1.0306945353
C        3.3329246644   -0.3496816010    0.0655402595
C        4.1299666062   -0.2644105726   -1.0982630970
C        1.9669680649   -0.9783938683    0.1183463243
C        1.1066665265   -1.2078730656   -1.1190034442
O        1.4736853313   -1.2520117208    1.2086311714
O        3.7350380139   -0.7845955825   -2.2960990287
H        5.4471614696    1.2072294002    2.2558396071
H        6.8338619919    1.3675768644    0.2066520516
H        3.2452422511    0.1312731198    2.1820301245
H        6.0042437796    0.4300996162   -1.9147457559
H        1.4613436839   -2.0904137650   -1.6576421521
H        1.1513419930   -0.3346741782   -1.7748359910
H        0.0656043670   -1.3687665414   -0.8255543463
H        4.4289761948   -0.6537206975   -2.9640896986
18   

C        5.1368197809    0.7417162367    1.3248052090
C        5.9095595061    0.8403126629    0.1720257625
C        3.8570325086    0.1876727448    1.2623507863
C        5.3966425723    0.3825850722   -1.0421944648
C        3.3234184494   -0.2794076574    0.0452144916
C        4.1148238767   -0.1761446303   -1.1239601659
C        1.9337491216   -0.8573044862    0.0966843421
C        1.2005330988   -1.4089626137   -1.1209809503
O        1.3396025054   -0.8958518344    1.1707119722
O        3.6851391127   -0.6003469830   -2.3470148660
H        5.5263533646    1.0945459468    2.2731866511
H        6.9041073761    1.2707882185    0.2201115958
H        3.2829163459    0.1269121259    2.1818019716
H        6.0121751672    0.4673543218   -1.9290721026
H        1.7624870045   -2.2430101993   -1.5489830191
H        1.0763610689   -0.6226348409   -1.8699042086
H        0.2104204562   -1.7704840239   -0.8294344695
H        4.3713633622   -0.4426379814   -3.0171389927
18   

C        5.1399417187    0.6652486292    1.3459473821
C        5.9096647911    0.7742043563    0.1910281747
C        3.8354123420    0.1734434769    1.2713793555
C        5.3676157718    0.3938528265   -1.0379942495
C        3.2784060294   -0.2209447857    0.0400085805
C        4.0604105029   -0.1001400617   -1.1308297761
C        1.8700857630   -0.7495810726    0.0729884152
C        1.2736310122   -1.6023569105   -1.0409367936
O        1.1817370469   -0.5623994570    1.0720154821
O        3.5850170646   -0.4302229791   -2.3663127651
H        5.5512228160    0.9613322768    2.3044992293
H        6.9234472867    1.1558848695    0.2485399822
H        3.2594731949    0.0975903134    2.1886606240
H        5.9783432656    0.4912400134   -1.9268869130
H        2.0021428676   -2.3446657579   -1.3768483359
H        0.9848882812   -0.9648484352   -1.8805892329
H        0.3865907789   -2.1271237667   -0.6754386673
H        4.2577060469   -0.2491429001   -3.0442430784
18   

C        4.6333768182    1.9329423826    0.1016786547
C        5.7639059298    1.1271494080   -0.0185697707
C        3.3673870202    1.3994544985   -0.1487914753
C        5.6227471475   -0.2114806182   -0.3929187368
C        3.2150583195    0.0531707736   -0.5233993714
C        4.3596343156   -0.7594388535   -0.6478088929
C        1.8128965991   -0.4423375250   -0.7404684171
C        1.3901683392   -1.8645637992   -0.3936952376
O        0.9522594038    0.3377799710   -1.1334834336
O        4.2780505728   -2.0667810599   -1.0307560579
H        4.7339946979    2.9734951766    0.3893265507
H        6.7477676100    1.5406581177    0.1757533936
H        2.4961276638    2.0397654416   -0.0490805893
H        6.5116931732   -0.8227483726   -0.4862600996
H        1.9515962330   -2.2216958106    0.4735346153
H        1.5804915993   -2.5231804371   -1.2450594141
H        0.3233530119   -1.8887812334   -0.1552789225
H        5.1679976984   -2.4495710396   -1.1106420235
18   

C        4.6038665119    1.9101859974    0.1632565021
C        5.7455798818    1.1228543206    0.0179767571
C        3.3485204632    1.3794519201   -0.1423504704
C        5.6254972743   -0.1946666586   -0.4332675570
C        3.2220406354    0.0596335647   -0.6014095864
C        4.3721697888   -0.7365978354   -0.7421820693
C        1.8346911296   -0.4603524828   -0.8603795496
C        1.3845613768   -1.8153210204   -0.3307933508
O        1.0270533710    0.2333182828   -1.4650992017
O        4.2955817229   -2.0249552923   -1.1863184676
H        4.6882541887    2.9331521729    0.5125742096
H        6.7213269712    1.5335920125    0.2545024761
H        2.4634031319    1.9974366853   -0.0263278227
H        6.5209616213   -0.7939295340   -0.5410021393
H        1.9340128273   -2.0605327250    0.5818686473
H        1.5752748064   -2.5855253998   -1.0825678291
H        0.3151880602   -1.7905127010   -0.1045750081
H        5.1867920365   -2.4005923972   -1.2837857280
18   

C        4.5677681898    1.8358735595    0.2279250488
C        5.7211097691    1.0771152865    0.0291873166
C        3.3209929032    1.3122003974   -0.1228594898
C        5.6201360000   -0.2049570877   -0.5187117813
C        3.2153089642    0.0315659743   -0.6802449048
C        4.3744688184   -0.7369888362   -0.8717091573
C        1.8424448056   -0.5069535345   -0.9982155475
C        1.3227359932   -1.7549967724   -0.2980266692
O        1.1161397421    0.0785887642   -1.7873617398
O        4.3077430266   -1.9915241020   -1.4050436203
H        4.6371519509    2.8311649627    0.6523985014
H        6.6905323462    1.4820474836    0.2993331266
H        2.4257928374    1.9064027790    0.0313098559
H        6.5229384586   -0.7844249915   -0.6661798224
H        1.5658835698   -1.7084865903    0.7665507414
H        1.7834344776   -2.6454579032   -0.7323376801
H        0.2375703292   -1.8244698445   -0.4126315114
H        5.2019927517   -2.3428407111   -1.5520976465
18   

C        4.6407452177    1.8267863508    0.3526212361
C        5.8060269040    1.0973514834    0.1184317463
C        3.4030623344    1.3038490689   -0.0309010369
C        5.7247281023   -0.1547731364   -0.4966318401
C        3.3155562498    0.0559228380   -0.6556509592
C        4.4872822381   -0.6831423882   -0.8816548603
C        1.9654372511   -0.5117718287   -1.0299057302
C        1.3704530002   -1.6467050048   -0.2089598233
O        1.3447822698   -0.0803508760   -1.9876716388
O        4.4351908603   -1.9127836880   -1.4723309498
H        4.6941747493    2.7990208516    0.8295827599
H        6.7687040609    1.5009332701    0.4135543808
H        2.4994924166    1.8767642569    0.1506253532
H        6.6351819498   -0.7148093225   -0.6699232260
H        1.2538525198   -1.3262850734    0.8294241479
H        2.0321272682   -2.5158533802   -0.2421394531
H        0.3926797190   -1.9285701885   -0.6093688558
H        5.3327485223   -2.2407707394   -1.6491171241
18   

C        4.6248892679    1.7745559233    0.4295401069
C        5.8108742248    1.0983049151    0.1447062509
C        3.4005361016    1.2315423130    0.0308123680
C        5.7631400403   -0.1218561149   -0.5345106348
C        3.3466797739    0.0168816565   -0.6579505931
C        4.5387636052   -0.6692658057   -0.9339329460
C        2.0198763456   -0.5797356977   -1.0753633099
C        1.2887907048   -1.5108249131   -0.1210729337
O        1.5206570610   -0.3175839679   -2.1559872953
O        4.5151575286   -1.8730340050   -1.5773387019
H        4.6524069267    2.7216789206    0.9565906724
H        6.7633749489    1.5175502791    0.4507924702
H        2.4818685248    1.7654946780    0.2502824541
H        6.6885636125   -0.6432195376   -0.7451355732
H        1.1277892019   -1.0074189288    0.8355404323
H        1.8905388487   -2.4085650846    0.0435629325
H        0.3221839413   -1.8001819447   -0.5427711430
H        5.4178808173   -2.1576900731   -1.7965587347
18   

C        4.6013855952    1.6757170647    0.5019553013
C        5.8138783895    1.0740238400    0.1664642037
C        3.3982152900    1.0905254321    0.0986739630
C        5.8143188611   -0.1140581376   -0.5688153186
C        3.3916856427   -0.0971020480   -0.6391016682
C        4.6117914274   -0.7049138512   -0.9729665064
C        2.0871838922   -0.7101778706   -1.0964170613
C        1.1356210334   -1.2997713779   -0.0663161353
O        1.7301550443   -0.6361832941   -2.2595425139
O        4.6386702184   -1.8760920381   -1.6734220129
H        4.5922985846    2.5995605998    1.0694277977
H        6.7500530184    1.5271055453    0.4746886662
H        2.4605692357    1.5735497092    0.3525744297
H        6.7604453759   -0.5765524309   -0.8208544911
H        1.0916667879   -0.6580175392    0.8170439819
H        1.4931203190   -2.2895002934    0.2299051436
H        0.1322830842   -1.3936065387   -0.4909326355
H        5.5465804887   -2.0886074457   -1.9453016249
18   

C        4.5873769371    1.5891786777    0.5710030575
C        5.8160857267    1.0573664376    0.1832783964
C        3.4013773660    0.9691332496    0.1695989583
C        5.8506140514   -0.0972988947   -0.6016724376
C        3.4262035409   -0.1879580558   -0.6189376908
C        4.6666469823   -0.7254585119   -1.0048189484
C        2.1378869441   -0.8202344679   -1.0829247623
C        1.0683739985   -1.1964379339   -0.0661122274
O        1.8879807669   -0.9476320896   -2.2702253857
O        4.7369425636   -1.8663151955   -1.7506790372
H        4.5521594613    2.4877255500    1.1768117211
H        6.7387814618    1.5386785221    0.4893628849
H        2.4546726568    1.4086709809    0.4640783749
H        6.8099936919   -0.5059995642   -0.8934521914
H        0.9027590924   -0.3783767041    0.6383446517
H        1.3913756942   -2.0829369091    0.4860618174
H        0.1274389705   -1.4194582171   -0.5769826564
H        5.6446561107   -2.0152494500   -2.0614426977
18   

C        4.5896341770    1.4929909840    0.6481591560
C        5.8229804651    1.0375990761    0.1887727437
C        3.4169433033    0.8414435645    0.2592721180
C        5.8756164246   -0.0743789014   -0.6531174572
C        3.4536729761   -0.2734179294   -0.5920953886
C        4.7060734504   -0.7363167982   -1.0453526902
C        2.1758319672   -0.9312762710   -1.0345160578
C        1.0531048712   -1.1592906601   -0.0315612777
O        1.9925979962   -1.2542376615   -2.1979606306
O        4.8118148951   -1.8395187404   -1.8419022641
H        4.5398555157    2.3567566262    1.3016831659
H        6.7356600787    1.5434716712    0.4851599002
H        2.4673310072    1.2240328608    0.6168936038
H        6.8402145148   -0.4256925459   -0.9976817392
H        0.5363876686   -0.2181179043    0.1714438244
H        1.4657301844   -1.5555579667    0.9000847164
H        0.3356775982   -1.8805301739   -0.4332036389
H        5.7172440626   -1.9336581307   -2.1785106052
18   

C        4.5826632037    1.4237069165    0.7108281189
C        5.8176382258    1.0461819230    0.1930186416
C        3.4274337081    0.7374722381    0.3308361422
C        5.8899833628   -0.0242297439   -0.6980376165
C        3.4775569990   -0.3374059328   -0.5740333023
C        4.7395327127   -0.7229812586   -1.0840154969
C        2.2133872515   -1.0303569648   -0.9864765866
C        1.0264260678   -1.0897586669   -0.0326454877
O        2.0871653499   -1.5527736810   -2.0846796626
O        4.8844434336   -1.7840943535   -1.9299149768
H        4.5174260271    2.2542804933    1.4048018268
H        6.7168346109    1.5792300352    0.4829620217
H        2.4800889510    1.0673826095    0.7423462315
H        6.8577378282   -0.3155374531   -1.0868882250
H        0.4810625910   -0.1429473780   -0.0592291003
H        1.3745462803   -1.2829992993    0.9855318854
H        0.3512048586   -1.8974029129   -0.3294582165
H        5.7934630302   -1.8355860570   -2.2650856145
18   

C        4.6207900414    1.3814590890    0.7150208106
C        5.8377373881    1.0479810925    0.1324739842
C        3.4647988220    0.6795402156    0.3686603171
C        5.8910278853    0.0068743152   -0.7919492498
C        3.4892121383   -0.3712249734   -0.5686232400
C        4.7405654467   -0.7083132810   -1.1476940195
C        2.2250232610   -1.0910941863   -0.9251415909
C        0.9827395039   -0.9537661469   -0.0512911852
O        2.1364666913   -1.8138890230   -1.9086446949
O        4.8848073229   -1.7305616363   -2.0401900405
H        4.5697223016    2.1894924386    1.4362837660
H        6.7377644637    1.5924496952    0.3975957227
H        2.5379597963    0.9820618755    0.8421447995
H        6.8462522116   -0.2483904936   -1.2335672761
H        0.5472086402    0.0407831307   -0.1775934270
H        1.2438553766   -1.1115396447    0.9984647664
H        0.2392606451   -1.7023744594   -0.3401064777
H        5.7951709318   -1.7736717920   -2.3721085093
18   

C        4.6296201013    1.3631536845    0.7326776855
C        5.8322206652    1.0850063686    0.0954469440
C        3.4864214599    0.6250096212    0.4213919426
C        5.8829988006    0.0661348364   -0.8527034407
C        3.5073892624   -0.4113221858   -0.5332159435
C        4.7452474116   -0.6839004925   -1.1766033159
C        2.2589105601   -1.1798849009   -0.8387197265
C        0.9501179781   -0.8554548695   -0.1252594943
O        2.2285397163   -2.0876898648   -1.6594186106
O        4.8890443320   -1.6621162557   -2.1171690425
H        4.5801025207    2.1545148062    1.4723126620
H        6.7226534985    1.6565268944    0.3347956745
H        2.5753353070    0.8835827895    0.9479434237
H        6.8262915431   -0.1410744634   -1.3425141653
H        0.6576814663    0.1772124575   -0.3326086857
H        1.0667094028   -0.9982211236    0.9522097408
H        0.1566413536   -1.5196081171   -0.4802675944
H        5.8023436769   -1.6989123799   -2.4413937873
