29   

C        2.3284971006   -3.3908808391    0.5141524159
C        3.2013580032   -2.6040011204    1.2673559485
C        0.9512376465   -3.2728986802    0.7069742560
C        2.6974110174   -1.7147395468    2.2231506994
C        0.4470332729   -2.3827695729    1.6614763403
C       -0.2156327769   -3.4634257290    5.7329252335
C        0.3602019727   -4.7148364142    5.9634733951
C       -1.1673634432   -4.3023353524    3.6829004683
C        1.3108384069   -1.6114618286    2.4591259217
C       -0.9723203816   -3.2401417663    4.5782606115
C        0.1879988161   -5.7667898443    5.0555407686
C       -0.5892157566   -5.5582174416    3.9018129879
C        0.8672672910   -0.6482524085    3.4698439638
C       -0.3002261262   -0.4753195610    4.1185626354
O       -2.5074905948   -1.6174354723    3.0147789735
O       -2.5174128409   -1.1850696597    5.4113001703
S       -1.7121350718   -1.6037718041    4.2538811533
Cl       0.9363931828   -7.3159987628    5.3765239766
Cl      -0.8439903946   -6.8377379755    2.7347907862
H        2.7168196151   -4.0810516479   -0.2266543726
H        4.2712548459   -2.6823862956    1.1101968535
H        0.2681432783   -3.8622872688    0.1054538586
H        3.3983506299   -1.1153491725    2.7933445767
H       -0.6246424277   -2.2839013022    1.7301549063
H       -0.0738545802   -2.6626587038    6.4535834806
H        0.9499330201   -4.8788785408    6.8575815289
H       -1.7762165891   -4.1567080045    2.7949593088
H        1.6312637562    0.0625527774    3.7678655143
H       -0.4162373775    0.3937731221    4.7483922651
29   

C        2.1687460292   -3.5772154225    0.7053842983
C        3.0580550308   -2.9151180100    1.5547900906
C        0.8141285992   -3.2389193820    0.7213801880
C        2.5900918421   -1.9283867277    2.4300300133
C        0.3458428522   -2.2530258802    1.5967888350
C       -0.1416980214   -3.4139659678    5.6936235404
C        0.5108213143   -4.6345986708    5.8825756023
C       -1.0315357825   -4.2375258023    3.6102063806
C        1.2209392305   -1.6029353583    2.4840970223
C       -0.9053188557   -3.1974125863    4.5425523208
C        0.4097857940   -5.6614191325    4.9356377652
C       -0.3755808024   -5.4610516588    3.7862254408
C        0.7885850688   -0.5637590292    3.4267177528
C       -0.3743241938   -0.4020685206    4.0822573255
O       -2.5564725030   -1.6356268957    3.0396772500
O       -2.5170886160   -1.2182501249    5.4407163971
S       -1.7288448791   -1.5942459550    4.2570070701
Cl       1.2575512585   -7.1691488945    5.2020483290
Cl      -0.5410516327   -6.7084730504    2.5693957890
H        2.5295175902   -4.3432313116    0.0278896061
H        4.1122796208   -3.1675565508    1.5357291808
H        0.1241772732   -3.7335506925    0.0467434901
H        3.2977025011   -1.4289799018    3.0823566605
H       -0.6999480317   -1.9811047871    1.5466737227
H       -0.0519083417   -2.6308522615    6.4415063366
H        1.1071366773   -4.7933125367    6.7731763772
H       -1.6412138752   -4.0956610622    2.7223087082
H        1.5591536382    0.1495494233    3.7009943461
H       -0.5186739710    0.4821998945    4.6843166808
29   

C        1.9455146866   -3.7332511552    0.8512672347
C        2.8056430447   -3.2610593212    1.8461972406
C        0.6895971398   -3.1450434548    0.6831889444
C        2.4073416923   -2.2072085649    2.6767166036
C        0.2886998269   -2.0960300786    1.5177385104
C       -0.1158816859   -3.3769006322    5.6692102412
C        0.6096227292   -4.5592455748    5.8361880954
C       -0.9106680432   -4.1918452691    3.5445718875
C        1.1372304989   -1.6222771799    2.5329554373
C       -0.8668723904   -3.1732473879    4.5074869425
C        0.5941427426   -5.5603645156    4.8568500119
C       -0.1820337905   -5.3764639178    3.6987547145
C        0.7369044206   -0.5324933946    3.4406843584
C       -0.4296955076   -0.3681635046    4.0831935455
O       -2.5495762731   -1.6579030464    2.9912371328
O       -2.5702812259   -1.2632660314    5.4019124116
S       -1.7510263639   -1.6005827491    4.2274738292
Cl       1.5389861592   -7.0145758284    5.0920722671
Cl      -0.2409373471   -6.5927636568    2.4411531807
H        2.2528285600   -4.5506225566    0.2083079337
H        3.7820883443   -3.7141435977    1.9752941505
H        0.0240421564   -3.4992066656   -0.0962038942
H        3.0850383554   -1.8568449302    3.4470551459
H       -0.6811921839   -1.6390533505    1.3547029684
H       -0.0870089567   -2.6103609016    6.4387314844
H        1.1994728723   -4.7063344629    6.7330359905
H       -1.5046602214   -4.0577054087    2.6449457555
H        1.5273575928    0.1538721440    3.7267121389
H       -0.5937461811    0.5138124246    4.6833207411
29   

C        1.8299081027   -3.7720062261    0.9127560335
C        2.6197209040   -3.4033496886    2.0055164743
C        0.6703763670   -3.0496171082    0.6183167006
C        2.2526323354   -2.3112453346    2.8003170364
C        0.2998976134   -1.9627016405    1.4176342860
C       -0.0995346757   -3.3531166772    5.6443095873
C        0.6478453036   -4.5209666061    5.8180762703
C       -0.8358855950   -4.1711088832    3.4995904366
C        1.0907881315   -1.5767877120    2.5123706319
C       -0.8331676993   -3.1584697577    4.4698538704
C        0.6694256708   -5.5175800659    4.8342629696
C       -0.0895934762   -5.3436886332    3.6633675188
C        0.6919943487   -0.4564548508    3.3922654672
C       -0.4509102876   -0.3416796510    4.0807140972
O       -2.5053867579   -1.6673058594    2.9189790116
O       -2.6055985306   -1.2962550302    5.3339100166
S       -1.7464619312   -1.6038505823    4.1798778584
Cl       1.6393551311   -6.9535523650    5.0793475020
Cl      -0.1054847712   -6.5579317041    2.4023298575
H        2.1131570484   -4.6188856307    0.2975201675
H        3.5151908816   -3.9679397486    2.2394497779
H        0.0536858893   -3.3322826420   -0.2276349413
H        2.8690219855   -2.0430989643    3.6508872105
H       -0.6043884260   -1.4118427369    1.1782983380
H       -0.1005129605   -2.5905041581    6.4182217469
H        1.2250494049   -4.6606819498    6.7243256228
H       -1.4121154354   -4.0414159166    2.5878098900
H        1.4729743797    0.2534760551    3.6447243743
H       -0.6262411003    0.5210147404    4.7050425186
29   

C        2.0444503696   -3.2099224827    0.8117269351
C        2.3481258970   -3.9948533807    1.9282264925
C        1.7757476098   -1.8473599728    0.9716929256
C        2.3931614368   -3.4154900668    3.2016116832
C        1.8173985574   -1.2700313670    2.2455224491
C       -0.8258025723   -3.9026694496    4.9284898304
C       -0.9432173277   -5.1774619233    4.3678759249
C       -1.0452917298   -2.9407218574    2.7285919223
C        2.1472752585   -2.0436623913    3.3688127183
C       -0.8562937469   -2.7706821694    4.1079110334
C       -1.1061973352   -5.3470511246    2.9871267573
C       -1.1675346710   -4.2129780843    2.1579779347
C        2.1380856025   -1.4559277123    4.7318931350
C        1.0608777457   -1.0821932333    5.4302754968
O       -0.8042955183   -0.0715143267    3.7587849553
O       -1.5521861489   -0.8943366377    5.9376474712
S       -0.6370837397   -1.0966464496    4.8034316822
Cl      -1.2273154170   -6.9615293197    2.3225505138
Cl      -1.3794373438   -4.3641876935    0.4266676263
H        2.0065279533   -3.6589721391   -0.1746254994
H        2.5408010518   -5.0548483814    1.8072283292
H        1.5279107363   -1.2371677103    0.1102764540
H        2.6145826173   -4.0369424087    4.0618712675
H        1.5898677425   -0.2148886533    2.3630885983
H       -0.7014495735   -3.7924287934    6.0022314600
H       -0.9063626126   -6.0519545982    5.0065946039
H       -1.0826050666   -2.0704265560    2.0792872321
H        3.0681541427   -1.5269664128    5.2865082613
H        1.1581867568   -0.7454484675    6.4509550669
29   

C        2.0800926200   -3.2818012245    0.8626692739
C        2.2650978729   -4.0151579422    2.0387652604
C        1.9122859753   -1.8950943799    0.9262893385
C        2.2877670053   -3.3612636486    3.2760795398
C        1.9375839209   -1.2423668671    2.1638175918
C       -0.7901813941   -3.9677237440    4.9213087656
C       -0.8981964485   -5.2239076160    4.3177703953
C       -1.0301692382   -2.9339213740    2.7557460213
C        2.1401816937   -1.9678322427    3.3463124774
C       -0.8366403985   -2.8091139026    4.1394744758
C       -1.0691128870   -5.3478925530    2.9329167424
C       -1.1458285064   -4.1869818119    2.1430897677
C        2.1264060470   -1.2895134311    4.6700026622
C        1.0602188145   -1.0368348903    5.4342764506
O       -0.9421780259   -0.1056296995    3.8936953082
O       -1.5292242762   -1.0417138559    6.0726177400
S       -0.6618743598   -1.1542101185    4.8892628796
Cl      -1.1815570830   -6.9396426339    2.2143294593
Cl      -1.3699908817   -4.2809279170    0.4092353655
H        2.0559914395   -3.7887351155   -0.0956806673
H        2.3808985321   -5.0920797367    1.9919718008
H        1.7566411527   -1.3248088838    0.0172811219
H        2.4176872626   -3.9398580335    4.1836334166
H        1.7904027332   -0.1679166124    2.2081813512
H       -0.6657413481   -3.8922218893    5.9981439293
H       -0.8508301981   -6.1193876113    4.9260211209
H       -1.0807700652   -2.0422556626    2.1368576024
H        3.0994530923   -1.1193991970    5.1194728585
H        1.1835340064   -0.6607667104    6.4382979361
29   

C        2.8240172690   -4.2778641279    1.9898063498
C        3.1599633289   -4.0963038948    3.3345829050
C        2.0959348242   -3.2921524181    1.3174937461
C        2.7582741725   -2.9364868623    4.0068926939
C        1.6995679909   -2.1317424762    1.9917187235
C       -0.3851024729   -4.1816023898    4.0022567146
C       -0.7636237817   -4.8750003517    2.8521949162
C       -1.7206402179   -2.3037062780    3.2928307071
C        2.0025143710   -1.9545791265    3.3505991127
C       -0.8475681700   -2.8801268441    4.2255417544
C       -1.6092976715   -4.2887942461    1.9041885879
C       -2.0985984801   -2.9884620146    2.1298213787
C        1.6164645780   -0.7049149725    4.0536402430
C        0.6689720958   -0.5680780713    4.9868592657
O       -1.4330982168   -1.3879138727    6.4164798603
O        0.5807612949   -2.7743925570    6.5387273504
S       -0.2824148358   -1.9398957259    5.6847353260
Cl      -2.0325132021   -5.1804399413    0.4589971085
Cl      -3.1573414528   -2.2073181039    0.9755657399
H        3.1324057086   -5.1770722260    1.4681499976
H        3.7333686783   -4.8523539411    3.8593157637
H        1.8373442317   -3.4256761509    0.2730097728
H        3.0237258000   -2.8036112627    5.0513255776
H        1.1374057536   -1.3729247660    1.4587806250
H        0.2879985868   -4.6483562872    4.7170571691
H       -0.3870979998   -5.8768324350    2.6842339712
H       -2.1024561605   -1.3009000124    3.4593300262
H        1.9983201202    0.2158504788    3.6245189549
H        0.4085052947    0.4057594476    5.3722356570
29   

C        2.8906143351   -4.2653375622    2.0098236180
C        3.0843055438   -4.1026924218    3.3842824041
C        2.2666786881   -3.2547616984    1.2732851876
C        2.6400282118   -2.9390194823    4.0219433503
C        1.8300976337   -2.0888761566    1.9124093336
C       -0.3964890774   -4.2008205833    4.0186407333
C       -0.7931722393   -4.8809241267    2.8665962100
C       -1.7222348489   -2.3056053387    3.3385136253
C        1.9831324431   -1.9310626064    3.2986739001
C       -0.8433799485   -2.8966164703    4.2564968686
C       -1.6444733993   -4.2796580335    1.9329877764
C       -2.1202814259   -2.9774507034    2.1750858537
C        1.5350846803   -0.6883072074    3.9660982485
C        0.6707270690   -0.5830064508    4.9832800024
O       -1.3829342070   -1.4222733999    6.4706583087
O        0.6399817334   -2.7974236299    6.5390965989
S       -0.2474468350   -1.9645650282    5.7087712704
Cl      -2.0923072058   -5.1554274880    0.4854853259
Cl      -3.1862714727   -2.1775438750    1.0404456442
H        3.2302208910   -5.1685672134    1.5152045706
H        3.5811103983   -4.8759828395    3.9595935340
H        2.1199902527   -3.3736208294    0.2055961395
H        2.8059432177   -2.8222443662    5.0884512582
H        1.3479349409   -1.3129527150    1.3282224943
H        0.2792844016   -4.6798277334    4.7226301524
H       -0.4274913301   -5.8845128614    2.6856398910
H       -2.0921465930   -1.3003225698    3.5164391626
H        1.7933697439    0.2397405408    3.4663280796
H        0.4067898674    0.3853101968    5.3801850633
29   

C        2.9802164159   -4.2020303161    1.9809210705
C        2.9915198403   -4.1007033203    3.3740144418
C        2.5006129733   -3.1379113367    1.2135452240
C        2.5064765156   -2.9457302140    3.9975422686
C        2.0231432227   -1.9808848148    1.8392965507
C       -0.4584406048   -4.1952197229    4.1113383499
C       -0.8750089403   -4.9148538317    2.9905715977
C       -1.7443820746   -2.3018957237    3.3543735929
C        1.9906428089   -1.8803797955    3.2396474813
C       -0.8751892699   -2.8722899179    4.2941609545
C       -1.7187084308   -4.3358894195    2.0359463172
C       -2.1640698960   -3.0141707251    2.2234364538
C        1.4740279099   -0.6565091255    3.8779540664
C        0.6641752122   -0.5463310133    4.9421104181
O       -1.4021869441   -1.3122685919    6.4478240815
O        0.5980706509   -2.7078424111    6.5808128444
S       -0.2698648016   -1.8947925046    5.7115855644
Cl      -2.1980429731   -5.2646139118    0.6321716471
Cl      -3.2219200068   -2.2413402147    1.0626820913
H        3.3512125392   -5.0985668352    1.4967678343
H        3.3819252064   -4.9140938373    3.9754228843
H        2.4969242744   -3.2088134262    0.1316179976
H        2.5521901008   -2.8788150304    5.0788037325
H        1.6517045493   -1.1661383184    1.2277045771
H        0.2054645685   -4.6605337502    4.8354953989
H       -0.5343029547   -5.9338727414    2.8517599493
H       -2.0931040745   -1.2827307744    3.4914026052
H        1.6736011403    0.2686426741    3.3468497221
H        0.4146480312    0.4295335902    5.3300305799
29   

C        3.0700542015   -4.0236327797    1.7395372617
C        2.7821862481   -4.1440861752    3.0998832994
C        2.8673111654   -2.8012583600    1.0973838210
C        2.2771234725   -3.0503917830    3.8117232414
C        2.3648148856   -1.7083153991    1.8119785158
C       -0.6696630623   -4.3161459613    4.3737553236
C       -1.1039940550   -5.1166090780    3.3160285543
C       -1.5905665964   -2.3821320292    3.2668152365
C        2.0358168978   -1.8186730847    3.1748676121
C       -0.8976426444   -2.9355904155    4.3522927127
C       -1.7755002403   -4.5609434559    2.2209552164
C       -2.0245903147   -3.1761704315    2.1976644405
C        1.4875024921   -0.6491378751    3.8708062028
C        0.6529315345   -0.5596063127    4.9213517992
O       -1.4441706868   -1.2650590316    6.4098139217
O        0.5394911463   -2.6527067835    6.6446787391
S       -0.3023713465   -1.8792711483    5.7159228073
Cl      -2.2914723192   -5.5978601015    0.9088442583
Cl      -2.8619170544   -2.4284627349    0.8546941750
H        3.4583721982   -4.8719864244    1.1869795699
H        2.9589142229   -5.0842178536    3.6100204166
H        3.0973273683   -2.6994915856    0.0427025492
H        2.1096049603   -3.1718628304    4.8730530708
H        2.2107374214   -0.7708459494    1.2892468322
H       -0.1483771933   -4.7676753590    5.2143520675
H       -0.9180706356   -6.1837962059    3.3394614375
H       -1.7926995997   -1.3158697080    3.2409099222
H        1.7324996294    0.3044487174    3.4140954486
H        0.4142634512    0.4164192180    5.3162253321
29   

C        3.3643277740   -3.9297087874    1.7140168673
C        2.8388823507   -4.1421311731    2.9885798915
C        3.2830866250   -2.6616638817    1.1393193167
C        2.2226000431   -3.0939809021    3.6813657899
C        2.6677515414   -1.6148212694    1.8340339434
C       -0.7795937627   -4.3519002547    4.4435750840
C       -1.2984512902   -5.1734259992    3.4411342932
C       -1.7189443582   -2.4301432939    3.3305700712
C        2.1088345871   -1.8098534557    3.1117901053
C       -0.9753311562   -2.9670729015    4.3908604643
C       -2.0243702706   -4.6351999183    2.3721571204
C       -2.2391736648   -3.2456870031    2.3176345830
C        1.4424836690   -0.6768155944    3.7569882841
C        0.6016603581   -0.5815683806    4.8046188615
O       -1.3920361856   -1.2543021028    6.4394610130
O        0.6026183938   -2.6366549173    6.5854188696
S       -0.2934745993   -1.8835834926    5.6915910467
Cl      -2.6517671294   -5.6994271192    1.1323417880
Cl      -3.1435373545   -2.5189787023    1.0068207123
H        3.8398115845   -4.7429828255    1.1770409289
H        2.9161719960   -5.1204876052    3.4491851114
H        3.6947748949   -2.4881469046    0.1513723704
H        1.8745198054   -3.3044249270    4.6796753572
H        2.6128184582   -0.6423086038    1.3575452775
H       -0.2231429005   -4.7914325581    5.2679553853
H       -1.1400000688   -6.2443053329    3.4890688763
H       -1.8986347406   -1.3605761902    3.2821207009
H        1.6548995737    0.2802642245    3.2914498133
H        0.3184518682    0.4026597319    5.1463966762
29   

C        2.8481601114   -2.1890118743    0.3963370272
C        1.4893803607   -2.1413974325    0.7046628496
C        3.7857766958   -1.8800246018    1.3801946625
C        1.0691152271   -1.7926639028    1.9932226473
C        3.3629678177   -1.5312115056    2.6673301878
C       -0.7306939856   -4.1551360059    5.3586521122
C       -0.6771204778   -5.5299562407    5.1195015540
C       -1.5112846265   -3.8121617896    3.1035382133
C        1.9959776804   -1.4836688375    3.0097179211
C       -1.1328066329   -3.2787096670    4.3448744305
C       -1.0294476746   -6.0591827551    3.8723806524
C       -1.4554190931   -5.1888396366    2.8523975312
C        1.6517682300   -1.1550317751    4.3938911743
C        0.5039679391   -1.0449878674    5.0926639046
O       -1.6662025185   -0.7496109079    3.4622799366
O       -2.0488131452   -1.2180027991    5.8232977113
S       -1.1988342829   -1.4800227173    4.6519238836
Cl      -0.9400839717   -7.7876890215    3.6117230541
Cl      -1.9177780453   -5.7957010711    1.2769942883
H        3.1722188795   -2.4608247284   -0.6021472157
H        0.7538102526   -2.3710823379   -0.0581546220
H        4.8442493208   -1.9126917880    1.1475291226
H        0.0083064638   -1.7546770534    2.1580715429
H        4.1202881138   -1.3035874360    3.4091809259
H       -0.4610746558   -3.7682495587    6.3376541806
H       -0.3606211407   -6.2013661519    5.9091296472
H       -1.8609230444   -3.1529641003    2.3138309812
H        2.5180663755   -0.9058835844    4.9980141639
H        0.5647166194   -0.6791524181    6.1065624183
29   

C        2.5793581300   -2.6615241915    0.6507235080
C        1.2582580536   -2.2846490806    0.8916601062
C        3.5443437017   -2.4542991137    1.6361808562
C        0.9003021654   -1.7157603927    2.1189710360
C        3.1839033613   -1.8857487495    2.8627753848
C       -0.4067603683   -4.0936903313    5.3804291326
C       -0.1787964710   -5.4377137732    5.0767132425
C       -1.3441675864   -3.7773752765    3.1819023471
C        1.8521548331   -1.5215584822    3.1399369982
C       -0.9770991909   -3.2446808724    4.4267032081
C       -0.5200109696   -5.9624144763    3.8242059962
C       -1.1137595472   -5.1214008234    2.8656199482
C        1.5406387527   -0.9859316772    4.4666903558
C        0.3870297600   -0.8071182444    5.1389706228
O       -1.9045937692   -0.7935665355    3.6722190218
O       -2.0581466858   -1.3617762131    6.0345965171
S       -1.2616843030   -1.4820360350    4.8039515457
Cl      -0.2068030151   -7.6496411875    3.4802420910
Cl      -1.5666743192   -5.7231859000    1.2855324507
H        2.8551304660   -3.1049773058   -0.2996521995
H        0.5071010880   -2.4244170094    0.1222450836
H        4.5743210737   -2.7386914108    1.4522442091
H       -0.1228639166   -1.3970965100    2.2337470349
H        3.9544217938   -1.7470357124    3.6129570854
H       -0.1394536220   -3.7088500440    6.3607890850
H        0.2684984392   -6.0882702393    5.8189004692
H       -1.8155654229   -3.1404646655    2.4385580727
H        2.4150224744   -0.6752326634    5.0293880859
H        0.4186508604   -0.2766216920    6.0786991338
29   

C        2.3810734383   -2.8448009822    0.7424389337
C        1.1456855028   -2.2178697376    0.9100413865
C        3.3234454141   -2.7977853587    1.7708349811
C        0.8467038009   -1.5625741660    2.1097194451
C        3.0225485521   -2.1402630146    2.9688875256
C       -0.3218793703   -4.0558277741    5.3733530973
C       -0.0074896043   -5.3777840764    5.0495858746
C       -1.1809669027   -3.7372403385    3.1437041777
C        1.7694638624   -1.5350269365    3.1722012215
C       -0.8956572299   -3.2158931634    4.4140720463
C       -0.2641546104   -5.8885026737    3.7711232916
C       -0.8627516292   -5.0577355032    2.8069089775
C        1.4908088535   -0.8916382573    4.4613580667
C        0.3362431087   -0.7085524134    5.1266550653
O       -1.9606590477   -0.8169983976    3.6813629439
O       -2.0672735471   -1.4027180028    6.0441294828
S       -1.2754016497   -1.4748936352    4.8065864565
Cl       0.1607432524   -7.5454739643    3.4012467068
Cl      -1.2096000249   -5.6412740532    1.1934507082
H        2.6104395950   -3.3570051249   -0.1854427808
H        0.4181682313   -2.2312567949    0.1060981416
H        4.2883998771   -3.2749848871    1.6417533139
H       -0.1016676602   -1.0484793724    2.1832552945
H        3.7683411037   -2.1241824022    3.7557789855
H       -0.1167389702   -3.6798544507    6.3719617171
H        0.4436391848   -6.0212766861    5.7954825849
H       -1.6500172110   -3.1062701176    2.3939736926
H        2.3734813511   -0.5699178365    5.0046443864
H        0.3448879174   -0.1313837686    6.0388467337
29   

C        2.1469888124   -2.9298129043    0.7933910109
C        1.0838784718   -2.0299623155    0.8948064652
C        2.9963010138   -3.1234548573    1.8851976939
C        0.8578452998   -1.3431125841    2.0927729486
C        2.7726876715   -2.4297505561    3.0799113834
C       -0.2981094210   -4.0138067613    5.3679950580
C        0.1000705459   -5.3136138195    5.0456340344
C       -1.0160217053   -3.6930043437    3.0893916547
C        1.6814244415   -1.5556637811    3.2119421285
C       -0.8415533295   -3.1825098864    4.3837884863
C       -0.0428809229   -5.8106647255    3.7440816042
C       -0.6146321732   -4.9910458556    2.7546318328
C        1.4503236379   -0.8541780291    4.4870516315
C        0.2923686732   -0.6566461929    5.1360410143
O       -1.9415695405   -0.8131019885    3.6070013740
O       -2.1301813739   -1.4020172377    5.9701969194
S       -1.2915858512   -1.4544086294    4.7626013819
Cl       0.4920060874   -7.4358101925    3.3758249003
Cl      -0.8198198811   -5.5581856299    1.1113019380
H        2.3160853164   -3.4701305501   -0.1314817925
H        0.4327127220   -1.8609745985    0.0443642813
H        3.8274091304   -3.8152670754    1.8071917177
H        0.0417057322   -0.6306824979    2.1387500176
H        3.4393493700   -2.5965749231    3.9184861386
H       -0.1754219263   -3.6456763862    6.3829156477
H        0.5313441449   -5.9491659853    5.8098316421
H       -1.4543980288   -3.0666533371    2.3176099646
H        2.3440308722   -0.5695999936    5.0329483835
H        0.2781024063   -0.0732228866    6.0439921346
29   

C        2.0538085591   -2.9478973287    0.8198530344
C        1.1240392608   -1.9056763086    0.8604643298
C        2.7918758890   -3.2637008335    1.9635822876
C        0.9200584754   -1.1942870457    2.0480045003
C        2.5913711397   -2.5456761175    3.1479959691
C       -0.2957084414   -3.9916877483    5.3681404378
C        0.1266073574   -5.2876332723    5.0603127651
C       -0.9294321903   -3.6756791971    3.0637173652
C        1.6295380704   -1.5256280174    3.2132946678
C       -0.8100983832   -3.1649935004    4.3644427473
C        0.0347515052   -5.7860338592    3.7546288111
C       -0.5078908436   -4.9715154090    2.7448566619
C        1.4232965841   -0.7666093958    4.4665115469
C        0.2768085410   -0.6301812098    5.1448541026
O       -1.8943300258   -0.8053749572    3.5395291628
O       -2.1689916810   -1.3882173168    5.8994795701
S       -1.2874528644   -1.4391972677    4.7226629531
Cl       0.5974228119   -7.4061875561    3.4061169070
Cl      -0.6518251138   -5.5425399969    1.0962884960
H        2.2045388374   -3.5069450418   -0.0970361772
H        0.5577139254   -1.6475576689   -0.0274922928
H        3.5179524226   -4.0682450621    1.9333013501
H        0.1996965021   -0.3822513968    2.0618068694
H        3.1701860248   -2.8024827603    4.0279840684
H       -0.2130651677   -3.6226110602    6.3867447902
H        0.5363986819   -5.9193766400    5.8393948759
H       -1.3396534923   -3.0507416810    2.2754380882
H        2.3217211995   -0.4422296009    4.9815516523
H        0.2498705830   -0.0646742895    6.0636658979
29   

C        2.0184902801   -2.9771313652    0.8645477610
C        1.1851032239   -1.8556242296    0.8332208855
C        2.6482234134   -3.3404758241    2.0580996793
C        0.9729124730   -1.1076883991    1.9966991920
C        2.4369347013   -2.5879940769    3.2189561809
C       -0.2711754355   -4.0151297638    5.3928399657
C        0.1538382026   -5.3063728012    5.0684059347
C       -0.9046109802   -3.6711667685    3.0919011468
C        1.5741603006   -1.4811642216    3.2071219398
C       -0.7879477938   -3.1773151894    4.3995877771
C        0.0605755244   -5.7893626955    3.7569337845
C       -0.4840191003   -4.9634955385    2.7575294956
C        1.3733435136   -0.6667190348    4.4319323276
C        0.2687478577   -0.6225120063    5.1838498702
O       -1.9099631712   -0.8285003733    3.6049001569
O       -2.1526313538   -1.4309106079    5.9647998393
S       -1.2829448022   -1.4608987749    4.7783438809
Cl       0.6241108045   -7.4047428753    3.3882363670
Cl      -0.6321780927   -5.5165652467    1.1031246171
H        2.1767601362   -3.5626950177   -0.0343534766
H        0.6997636128   -1.5649233658   -0.0918218427
H        3.2978539420   -4.2080424314    2.0846495067
H        0.3220296767   -0.2392804683    1.9628265521
H        2.9315705259   -2.8790321400    4.1387194523
H       -0.1905317785   -3.6591563394    6.4162726699
H        0.5650872961   -5.9472930688    5.8392166141
H       -1.3138328619   -3.0359869089    2.3111737763
H        2.2675884358   -0.2322864098    4.8669904254
H        0.2527377362   -0.0668245258    6.1088144894
29   

C        2.0162050517   -3.0952444847    0.9018655268
C        1.2742950712   -1.9190912296    0.7605467591
C        2.5228321748   -3.4498284764    2.1551339610
C        1.0360326527   -1.1028048521    1.8720927091
C        2.2812647665   -2.6320990998    3.2647332966
C       -0.2051434609   -4.0750788898    5.3703334459
C        0.2071294074   -5.3545930476    4.9873003666
C       -0.9407049270   -3.6626239906    3.1108327581
C        1.5203713477   -1.4595771127    3.1377556883
C       -0.7668382235   -3.2090317919    4.4269162769
C        0.0549561618   -5.7978070150    3.6671086692
C       -0.5354537975   -4.9435514321    2.7188796199
C        1.2976309745   -0.5725293548    4.3104135501
C        0.2614730286   -0.5972849427    5.1532333188
O       -2.0379075772   -0.8953072344    3.7858927765
O       -2.0312087541   -1.5355917466    6.1440190230
S       -1.2747162202   -1.5158964021    4.8819810676
Cl       0.6027269668   -7.3997556248    3.2239813469
Cl      -0.7598586625   -5.4473033461    1.0572445486
H        2.1970464129   -3.7313281258    0.0424049096
H        0.8817325164   -1.6387596364   -0.2105473676
H        3.0989556833   -4.3612739077    2.2680058922
H        0.4578099773   -0.1919186530    1.7540424536
H        2.6791142396   -2.9158646284    4.2324758790
H       -0.0841605648   -3.7516616473    6.4006815053
H        0.6518944400   -6.0184610849    5.7191002165
H       -1.3868070976   -3.0052919843    2.3695024846
H        2.1335807083    0.0635095964    4.5832738541
H        0.2655383317    0.0102997236    6.0451427509
29   

C        3.0109450941   -3.5420466665    2.1579866692
C        1.9330433428   -3.0792904283    1.3967852046
C        3.2899313483   -2.9561066588    3.3966183436
C        1.1432099450   -2.0243885056    1.8682491589
C        2.4966791916   -1.9045324801    3.8690184579
C        0.1902625803   -4.2928415176    4.4043712700
C        0.1042684305   -5.3065549162    3.4494665751
C       -1.8067218262   -3.2900137733    3.4994941859
C        1.4311536507   -1.4136391991    3.0994111207
C       -0.7568791103   -3.2635382221    4.4277443725
C       -0.9243906253   -5.3163486462    2.5012123778
C       -1.8956647566   -4.2980644110    2.5298321242
C        0.5522199119   -0.3315478905    3.6110391879
C       -0.3455938780   -0.4263983433    4.5971876953
O       -1.8525008896   -1.7271105015    6.3767153092
O        0.5608506460   -2.1061865968    6.5080095599
S       -0.5992604960   -1.8944205976    5.6247193915
Cl      -0.9757350670   -6.5870814099    1.2990385751
Cl      -3.2027127175   -4.2616084021    1.3663850604
H        3.6253829925   -4.3566790969    1.7911054050
H        1.7050507784   -3.5408452784    0.4425341110
H        4.1190151142   -3.3164364907    3.9953984671
H        0.3014324594   -1.6835418015    1.2757676339
H        2.7096944312   -1.4656094383    4.8390338938
H        1.0079589461   -4.2938978865    5.1207456013
H        0.8521481242   -6.0901640709    3.4334550349
H       -2.5608318685   -2.5089307317    3.5154310723
H        0.4883739942    0.5577500837    2.9923083558
H       -0.9966182111    0.4023380884    4.8298418999
29   

C        3.0556488627   -3.5293807229    2.1380764802
C        2.0475004898   -3.0278359258    1.3095400274
C        3.2237650951   -3.0053405048    3.4230145515
C        1.2137728298   -1.9989771614    1.7625588275
C        2.3846620702   -1.9823363026    3.8782088191
C        0.1754531349   -4.3138868519    4.4470202625
C        0.0823567133   -5.3245376833    3.4894515026
C       -1.8145675320   -3.2955750508    3.5448105951
C        1.3783338008   -1.4600618123    3.0493728685
C       -0.7627527770   -3.2764443666    4.4709033331
C       -0.9475207165   -5.3258657970    2.5423735136
C       -1.9126734768   -4.3020722430    2.5748517254
C        0.4625115355   -0.3997601923    3.5265953024
C       -0.3440239897   -0.4472087316    4.5943177991
O       -1.8308894368   -1.7142531164    6.4156368614
O        0.5816829396   -2.1008406687    6.5277341610
S       -0.5862100300   -1.8964474081    5.6531439273
Cl      -1.0084172408   -6.5933009386    1.3371565960
Cl      -3.2221908872   -4.2553924873    1.4145151014
H        3.7051691468   -4.3226491866    1.7850537745
H        1.9096279299   -3.4374547619    0.3151664189
H        4.0044926752   -3.3891975937    4.0702379466
H        0.4298820403   -1.6262127648    1.1126827454
H        2.5256614279   -1.5846893463    4.8784894107
H        0.9937801060   -4.3219791258    5.1625439353
H        0.8254267287   -6.1126383027    3.4700641984
H       -2.5619353837   -2.5080682608    3.5611623417
H        0.2960832113    0.4270704102    2.8436486260
H       -0.9810186951    0.3900281400    4.8354372952
29   

C        3.1454351570   -3.4414704911    2.0496756966
C        2.2362716431   -2.8349898777    1.1787746722
C        3.1774642409   -3.0618741094    3.3939595680
C        1.3589735640   -1.8526162543    1.6520216687
C        2.2952952140   -2.0850764331    3.8685586811
C        0.1164583699   -4.3415554730    4.5028589521
C        0.0083711462   -5.3694090380    3.5652234841
C       -1.8480419196   -3.3030102763    3.5685384623
C        1.3698433411   -1.4732091673    3.0057975980
C       -0.8011343449   -3.2854223869    4.5000484119
C       -1.0181963825   -5.3712521836    2.6143196542
C       -1.9627692368   -4.3280643587    2.6204681967
C        0.4228466449   -0.4465999240    3.4780043970
C       -0.3341251942   -0.4599271462    4.5854622072
O       -1.8677871181   -1.6740536132    6.4020780751
O        0.5315371753   -2.1034800551    6.5622508543
S       -0.6149881484   -1.8901587416    5.6622549165
Cl      -1.1027968431   -6.6655141809    1.4393449534
Cl      -3.2690701921   -4.2821037737    1.4564169010
H        3.8285639573   -4.1990364487    1.6819144024
H        2.2107317362   -3.1257571037    0.1345623676
H        3.8906884581   -3.5180605566    4.0714148537
H        0.6571715490   -1.3952196410    0.9634980266
H        2.3546045314   -1.7876190683    4.9097592233
H        0.9283867497   -4.3536314893    5.2255682272
H        0.7346128300   -6.1733458130    3.5662884034
H       -2.5807273109   -2.5016392172    3.5656789279
H        0.2168595466    0.3592001029    2.7808106686
H       -0.9486312218    0.3934590479    4.8286784510
29   

C        3.1909224886   -3.2303977449    1.8081716794
C        2.4426960950   -2.4010966195    0.9697587061
C        3.0341261986   -3.1383181481    3.1927714942
C        1.5313385569   -1.4898784386    1.5150425883
C        2.1213792809   -2.2291682040    3.7385366087
C       -0.0113777393   -4.4305039299    4.7933628691
C       -0.1035546391   -5.5415918024    3.9536107459
C       -1.7552632539   -3.3493099643    3.5271985048
C        1.3408195966   -1.4058988107    2.9079785998
C       -0.8289828570   -3.3152997468    4.5786036953
C       -1.0121262014   -5.5665446683    2.8893222895
C       -1.8510625397   -4.4572039357    2.6754595494
C        0.3671113208   -0.4334560458    3.4188229611
C       -0.4028945394   -0.4581983779    4.5205270722
O       -1.9632555470   -1.6116142347    6.3492704487
O        0.4273673483   -1.9935118405    6.5985888613
S       -0.6903787291   -1.8453334544    5.6508514513
Cl      -1.0866692478   -6.9739707567    1.8516739327
Cl      -3.0075400658   -4.4355381427    1.3617241146
H        3.8984407391   -3.9356033362    1.3863493518
H        2.5686357389   -2.4639121220   -0.1053089331
H        3.6290089174   -3.7638996702    3.8486455848
H        0.9595313616   -0.8575177272    0.8449726314
H        2.0605228291   -2.1527762630    4.8157982960
H        0.7023001923   -4.4311770642    5.6135781036
H        0.5380744456   -6.3977860819    4.1245459033
H       -2.4110635930   -2.5010907043    3.3568409482
H        0.1734927823    0.4053814762    2.7578974926
H       -1.0227569486    0.3963706782    4.7461896158
29   

C        3.4446891112   -3.0245358026    1.7257072357
C        2.7845756583   -2.0901231483    0.9263313599
C        3.1053758422   -3.1419259176    3.0744845873
C        1.7791146221   -1.2848498101    1.4726140760
C        2.0993211237   -2.3377004663    3.6213274702
C       -0.0886814424   -4.4961974120    4.8647617088
C       -0.2644920146   -5.6472737819    4.0945682761
C       -1.8809184952   -3.4325197375    3.6522412799
C        1.4007154955   -1.4117926201    2.8253416686
C       -0.8891513125   -3.3701633492    4.6409968906
C       -1.2416432741   -5.7025612097    3.0938086534
C       -2.0622506692   -4.5813361314    2.8718135235
C        0.3485800079   -0.5186111927    3.3172241204
C       -0.4185660792   -0.5318434065    4.4236353826
O       -1.8983595339   -1.5663587962    6.3819396898
O        0.4933924508   -1.9831632684    6.5352665481
S       -0.6652829606   -1.8563554116    5.6350545586
Cl      -1.4250685210   -7.1627418003    2.1463957962
Cl      -3.3043344159   -4.5969054361    1.6384344965
H        4.2256479761   -3.6477827936    1.3043585550
H        3.0530201005   -1.9875515463   -0.1191386875
H        3.6327360381   -3.8483677895    3.7055518973
H        1.2843426943   -0.5664777575    0.8284202459
H        1.9134886053   -2.4301085195    4.6794518551
H        0.6719073381   -4.4776607282    5.6415177713
H        0.3620316607   -6.5132392724    4.2726756043
H       -2.5261897841   -2.5767331382    3.4787799108
H        0.1261694893    0.3105071026    2.6531726450
H       -1.0705740447    0.3087912917    4.6076582098
29   

C        2.4789755695   -3.0748703144    0.2012694655
C        3.2888678509   -2.1569658816    0.8705141445
C        1.1530128330   -3.2444057767    0.6010633438
C        2.7752897848   -1.4186723338    1.9424313075
C        0.6383289531   -2.5062488830    1.6726899268
C       -0.3934755525   -3.5360989567    5.8027306567
C        0.0475059534   -4.8209847346    6.1271242829
C       -1.3403398370   -4.3981711514    3.7598711968
C        1.4434006004   -1.5927882359    2.3768946470
C       -1.0788392697   -3.3085617270    4.6044165362
C       -0.1914696874   -5.9031165010    5.2717169337
C       -0.8977882201   -5.6890363467    4.0740868294
C        1.0039482807   -0.7582949509    3.4965637351
C       -0.1472019334   -0.6230432418    4.1848405518
O       -2.3059315541   -1.6178893239    2.8487328044
O       -2.5450326131   -1.1292534564    5.2238109015
S       -1.6525149477   -1.6308191423    4.1679548929
Cl       0.3857342822   -7.4957590477    5.7121259156
Cl      -1.2334628210   -7.0061881451    2.9711616551
H        2.8740155778   -3.6470706865   -0.6308459890
H        4.3169687197   -2.0146349059    0.5570284957
H        0.5141750808   -3.9435214695    0.0729611632
H        3.4304447708   -0.7109502349    2.4379992110
H       -0.3996090409   -2.6558173994    1.9086311265
H       -0.2031684376   -2.7133172425    6.4864181249
H        0.5818317600   -4.9881678474    7.0550036697
H       -1.8997024970   -4.2485837471    2.8403395992
H        1.7616495958   -0.0585750466    3.8339654755
H       -0.2116919466    0.1704719656    4.9140432783
