25   

C       -0.2394542241   -5.5681374189   -3.7790585586
C        0.0371698410   -4.7721853997   -2.5916559624
C       -0.4762088710   -4.7867473692   -4.8794522987
C       -0.0320743334   -1.0294296900   -1.8552106675
C        0.2404608229   -2.3720519471   -1.8595235012
C       -0.0001617853   -3.4173698093   -2.8393193816
C        0.4367672378   -0.5476013412   -0.5688651530
C       -2.2025690740   -0.3142746182   -2.9222603392
C        0.3307968952    0.8454420608   -0.0217312406
C       -0.6832567119   -0.1624552389   -2.9153015912
N        0.9374679254   -1.5381735934    0.1208474663
N        0.8188893528   -2.6537362351   -0.6506856914
O       -2.7561084328   -0.5384164023   -3.9863032505
O       -2.8670043286   -0.1639153903   -1.7486629115
S       -0.3707744533   -3.0698988982   -4.5109459257
H       -0.2590964641   -6.6526580032   -3.7915475324
H        0.2371220732   -5.2145181313   -1.6235391641
H       -0.7057015320   -5.1694994347   -5.8672813157
H       -0.5539617319    1.3487712825   -0.4195611726
H        0.2574787782    0.8139217490    1.0691786266
H        1.2215025450    1.4166056639   -0.2961438124
H       -0.2779032647   -0.3949025584   -3.9020403460
H       -0.4505385103    0.8884055494   -2.7297405410
H        1.1440010071   -3.5779749146   -0.3797189884
H       -3.8067503352   -0.3117044269   -1.9414172355
25   

C       -0.2555247900   -5.4380138526   -4.0003945310
C       -0.1126029333   -4.6790522597   -2.7661238654
C       -0.1104074745   -4.6471887790   -5.1106667193
C        0.0582133192   -1.0041052753   -1.9074920356
C        0.3398292724   -2.3406023283   -1.9612229066
C        0.1325320198   -3.3438956784   -2.9927386050
C        0.4917198290   -0.5759478179   -0.5902256532
C       -2.1106296086   -0.2647425553   -2.9049894931
C        0.3750194805    0.7945904049    0.0089256916
C       -0.5933417744   -0.1148992457   -2.9450578275
N        0.9684913708   -1.5968542029    0.0732782565
N        0.8747282051   -2.6797696321   -0.7478975860
O       -2.6548034401   -0.9382228496   -3.7645142350
O       -2.7859373910    0.4097601956   -1.9409660663
S        0.2027502305   -2.9659761450   -4.6950898536
H       -0.4583644256   -6.5029336152   -4.0377893328
H       -0.2070204479   -5.1233331623   -1.7824824361
H       -0.1834442520   -5.0033143271   -6.1317548295
H       -0.4737894623    1.3331052661   -0.4195748986
H        0.2349154404    0.7183529881    1.0910150205
H        1.2907062591    1.3590333179   -0.1853658739
H       -0.2231668973   -0.3445453138   -3.9457148809
H       -0.3418340068    0.9308587832   -2.7527646401
H        1.1987817798   -3.6150722255   -0.5141164309
H       -3.7244247238    0.1892812790   -2.0566517060
25   

C       -0.3044382656   -5.3574895299   -4.0030347045
C       -0.2513704223   -4.5822794892   -2.7714652803
C        0.1189661556   -4.6320533215   -5.0876485361
C        0.0848226073   -0.9704016725   -1.8991121528
C        0.3992661791   -2.2969924972   -1.9443949881
C        0.2026457551   -3.3020727775   -2.9789424208
C        0.5154405839   -0.5232345843   -0.5869988221
C       -2.1300354570   -0.2407964243   -2.7812422077
C        0.4159805184    0.8578827245   -0.0094882518
C       -0.6179389760   -0.1331399201   -2.9454596056
N        1.0377500520   -1.5254091387    0.0726071307
N        0.9749828727   -2.6141193461   -0.7450194134
O       -2.7476997568   -0.9814684807   -3.5286023712
O       -2.7200072531    0.5372978332   -1.8396096466
S        0.5926513949   -2.9929134980   -4.6525641157
H       -0.6440419525   -6.3862351443   -4.0573423380
H       -0.5503452795   -4.9692222885   -1.8041725622
H        0.1562444555   -5.0120370045   -6.1020630825
H       -0.4937711202    0.9355530781    0.5919521073
H        1.2767245264    1.0551262877    0.6357566432
H        0.3823580230    1.6120407742   -0.7984775029
H       -0.3356114117   -0.4486216916   -3.9515733616
H       -0.3285501936    0.9155520922   -2.8494245654
H        1.3346421749   -3.5381378330   -0.5166785404
H       -3.6682132702    0.3297542078   -1.8664799898
25   

C       -0.3666271714   -5.3332134097   -4.0360282055
C       -0.3988747930   -4.5441299707   -2.8122417032
C        0.3017807663   -4.6905658928   -5.0482227741
C        0.0442351658   -1.0231702175   -1.8738628638
C        0.4144036417   -2.3321734013   -1.9144152642
C        0.2384271745   -3.3374744119   -2.9568747610
C        0.4981175786   -0.5410580025   -0.5831582349
C       -2.2094499480   -0.3009713922   -2.6522748484
C        0.3599005398    0.8444067974   -0.0254381778
C       -0.7104556541   -0.2429241369   -2.9260148445
N        1.0866597877   -1.5119776192    0.0688420977
N        1.0454399433   -2.6131347011   -0.7350036433
O       -2.8800778853   -1.1284533088   -3.2475358070
O       -2.7308509131    0.6079434149   -1.7910995130
S        0.9110374363   -3.1131745276   -4.5547314065
H       -0.8225744382   -6.3122907121   -4.1366462399
H       -0.8805360390   -4.8651267892   -1.8955818718
H        0.4398483227   -5.0960540867   -6.0438962893
H       -0.5009389859    0.8816669611    0.6474236374
H        1.2562080225    1.1081262047    0.5429860183
H        0.2146791701    1.5752146621   -0.8239243049
H       -0.5081862442   -0.6448827872   -3.9216247752
H       -0.3882328969    0.8010015083   -2.9264551883
H        1.4479185236   -3.5204063733   -0.5098521498
H       -3.6804692343    0.4141578323   -1.7298286891
25   

C       -1.1496602599   -5.0914346370   -4.3680675029
C       -1.3354992672   -4.2762715152   -3.1753014228
C        0.0960862173   -4.9239195216   -4.9210640063
C       -0.0759885901   -1.2525069406   -1.7352220914
C       -0.0727358126   -2.6112370407   -1.7546113880
C       -0.2230728286   -3.5303678158   -2.8823393920
C        0.1252609396   -0.8923095029   -0.3453425759
C       -1.7335300728    0.0929158206   -3.0152873188
C        0.2243158911    0.4883608462    0.2315478603
C       -0.2705112169   -0.3242645693   -2.9108819027
N        0.2315339763   -1.9773493763    0.3801405485
N        0.1138398266   -3.0380588155   -0.4703214631
O       -2.4886322819   -0.5885488033   -3.6895742427
O       -2.1137878726    1.2300005140   -2.3815460372
S        1.0835100374   -3.7768030735   -4.0191036225
H       -1.9108126005   -5.7485021982   -4.7748780495
H       -2.2496833785   -4.2455175593   -2.5929923676
H        0.4410089730   -5.4311328283   -5.8147148267
H       -0.7387968163    0.7730121239    0.6633217234
H        0.9787231288    0.5077482501    1.0230797600
H        0.4939560056    1.2146018836   -0.5384857254
H        0.0325385612   -0.8167487827   -3.8388570451
H        0.3509370019    0.5671116221   -2.7950446467
H        0.1706952240   -4.0181420498   -0.2013911154
H       -3.0662668633    1.3287455268   -2.5434407427
25   

C       -1.1351710517   -4.8979236011   -4.4607101104
C       -1.3161877424   -4.0350757731   -3.3013388605
C        0.1875238121   -5.0333845131   -4.8047376720
C       -0.0451085945   -1.2805773931   -1.7030234110
C        0.0409160556   -2.6362598419   -1.6980115104
C       -0.1225733426   -3.5723850782   -2.8116490179
C        0.1574018165   -0.8807025697   -0.3249483704
C       -1.8032917657   -0.0160060047   -2.9336713097
C        0.1901102043    0.5165398022    0.2182837404
C       -0.3256904250   -0.3923136237   -2.8916652138
N        0.3297991924   -1.9430874455    0.4207646952
N        0.2551344671   -3.0261930215   -0.4066000802
O       -2.6021105218   -0.8308228464   -3.3677401977
O       -2.1532263717    1.2217707086   -2.5046174181
S        1.2566299066   -4.1259307267   -3.7376274757
H       -1.9535407646   -5.3686158877   -4.9948262596
H       -2.2801947706   -3.7605041770   -2.8860846206
H        0.5435113303   -5.6254901267   -5.6399091080
H       -0.7818146199    0.7612522031    0.6547058270
H        0.9508416145    0.5940695477    1.0001381000
H        0.4135873619    1.2365234188   -0.5722935368
H       -0.0584160863   -0.9047453480   -3.8200160152
H        0.2789903781    0.5162719839   -2.8328914535
H        0.3472460158   -3.9974963797   -0.1162345487
H       -3.1193886545    1.2781769828   -2.5862828524
25   

C       -1.1343822575   -4.8317051799   -4.5417044585
C       -1.2992312940   -3.8926096217   -3.4408312636
C        0.1730962205   -5.2194092162   -4.7014494973
C       -0.0618985764   -1.3166614917   -1.7337476547
C        0.0752670196   -2.6694887443   -1.7163071596
C       -0.1133948575   -3.6243547523   -2.8065492069
C        0.1766908941   -0.8916983405   -0.3687325069
C       -1.8781302848   -0.0460309566   -2.8885904960
C        0.1822194214    0.5130819051    0.1558054618
C       -0.4058072981   -0.4448049734   -2.9192281476
N        0.4138760477   -1.9368248796    0.3830359762
N        0.3474586871   -3.0328222863   -0.4275135627
O       -2.7070214274   -0.8403961494   -3.3033015650
O       -2.1901816280    1.1909314470   -2.4295715718
S        1.2461820053   -4.4653622591   -3.5249730045
H       -1.9515073162   -5.1751414588   -5.1669869958
H       -2.2441058301   -3.4370705323   -3.1634266004
H        0.5167298167   -5.9079008243   -5.4648355627
H       -0.7840298745    0.7344172928    0.6166282450
H        0.9620642509    0.6242321124    0.9144156988
H        0.3611537040    1.2285909775   -0.6500817433
H       -0.1958032936   -0.9743972862   -3.8526795823
H        0.2123391221    0.4566406007   -2.9104867172
H        0.4774553251   -3.9966712946   -0.1269055811
H       -3.1577920738    1.2644002524   -2.4723585904
25   

C       -1.1225772509   -4.7940504693   -4.6099132663
C       -1.2790701856   -3.7806875744   -3.5758501987
C        0.1244652379   -5.3670655276   -4.5902208293
C       -0.1239103441   -1.3233176975   -1.7403978210
C        0.0481214302   -2.6742984023   -1.7347131845
C       -0.1481538487   -3.6357111447   -2.8124791643
C        0.1638477032   -0.8973718899   -0.3844280165
C       -1.9811384794   -0.0210042123   -2.8096162337
C        0.1629501881    0.5048555136    0.1473559049
C       -0.5172073452   -0.4417266295   -2.9046852890
N        0.4624542773   -1.9377783206    0.3511907982
N        0.3895953636   -3.0320217950   -0.4603460692
O       -2.8322389249   -0.7623913410   -3.2735692879
O       -2.2607600301    1.1830915493   -2.2532612011
S        1.1479569273   -4.7021112598   -3.3202999035
H       -1.9024466853   -5.0582142698   -5.3161058350
H       -2.1834805443   -3.2013822455   -3.4280403961
H        0.4523400629   -6.1396672026   -5.2761464645
H       -0.7907783263    0.7071564069    0.6417705133
H        0.9662664806    0.6263109282    0.8794521376
H        0.3020756305    1.2273829851   -0.6601166376
H       -0.3522035388   -0.9661829577   -3.8498955263
H        0.1108285821    0.4528062581   -2.9192722284
H        0.5592043467   -3.9926925659   -0.1694459600
H       -3.2273661077    1.2775048621   -2.2734472946
25   

C       -1.0723116045   -4.7318825037   -4.7064211737
C       -1.2054071595   -3.6606339391   -3.7292475986
C        0.0728013675   -5.4638435306   -4.5203988040
C       -0.1526571023   -1.3220137984   -1.7397712363
C        0.0384130219   -2.6726883389   -1.7614108733
C       -0.1577160718   -3.6249228291   -2.8423469620
C        0.1879411062   -0.9110740481   -0.3904790222
C       -2.0466320623   -0.0059063060   -2.7392046338
C        0.1942564447    0.4821608043    0.1651636856
C       -0.5814443978   -0.4134355737   -2.8718836640
N        0.5384237868   -1.9557012909    0.3146764519
N        0.4490549507   -3.0383987112   -0.5094492126
O       -2.8916065101   -0.6748864162   -3.3113506620
O       -2.3324618397    1.1175952805   -2.0369454016
S        1.0243376134   -4.8811960863   -3.1584293583
H       -1.7967474799   -4.9242134834   -5.4906009415
H       -2.0432581591   -2.9748000139   -3.7035833850
H        0.3670712433   -6.3052047088   -5.1372109930
H       -0.7458883085    0.6699139550    0.6903338093
H        1.0179804413    0.5968570096    0.8753726464
H        0.3054611989    1.2196378339   -0.6329454046
H       -0.4247459834   -0.9063489829   -3.8350850474
H        0.0361813486    0.4883268371   -2.8733845801
H        0.6531441629   -3.9989552967   -0.2412189889
H       -3.2986419086    1.2162442559   -2.0575085159
25   

C       -0.9745572717   -4.6716587456   -4.7682107658
C       -1.0817127626   -3.5435138763   -3.8542202561
C        0.0271188251   -5.5357287514   -4.4092336412
C       -0.1920525768   -1.2888785201   -1.7253308502
C        0.0185843682   -2.6392502899   -1.7586590364
C       -0.1543661962   -3.5911959605   -2.8407439155
C        0.1744100626   -0.8782507182   -0.3817116365
C       -2.1211246065   -0.0185835897   -2.7260667840
C        0.1684067390    0.5098870159    0.1877939788
C       -0.6382025122   -0.3639564936   -2.8387956491
N        0.5672364181   -1.9178104868    0.3069948487
N        0.4794530155   -2.9966102015   -0.5210043851
O       -2.9136167776   -0.6147092763   -3.4369929832
O       -2.4782195388    0.9815359121   -1.8838917219
S        0.8702058162   -5.0100136487   -2.9568834712
H       -1.6170726686   -4.8098298749   -5.6312597580
H       -1.8279159287   -2.7673801800   -3.9614014557
H        0.2777768314   -6.4403442722   -4.9512672103
H       -0.7646048372    0.6763945758    0.7324749179
H        1.0034019315    0.6314988677    0.8835653958
H        0.2520818117    1.2582780524   -0.6032057729
H       -0.4346925491   -0.8138722713   -3.8138172197
H       -0.0615633084    0.5634141710   -2.7991608387
H        0.7176500523   -3.9524426593   -0.2643199661
H       -3.4449864054    1.0570418620   -1.9405660045
25   

C       -0.8422330098   -4.6508872790   -4.8157281851
C       -0.8958443891   -3.4759254442   -3.9580940902
C       -0.0297228315   -5.6278038460   -4.3052027919
C       -0.1907411245   -1.2908838918   -1.7053933051
C        0.0450753445   -2.6406706168   -1.7512960624
C       -0.1159560001   -3.5971241929   -2.8306256015
C        0.2407863911   -0.8700548238   -0.3835185234
C       -2.1895976359   -0.1630333813   -2.7660445008
C        0.2087423385    0.5107774317    0.2034456949
C       -0.6734351563   -0.3495643202   -2.7912093381
N        0.6793050077   -1.9004867041    0.2885086307
N        0.5616383153   -2.9819931210   -0.5301132305
O       -2.8462950434   -0.6203106814   -3.6872133333
O       -2.7267385685    0.5572744596   -1.7513397226
S        0.6943266646   -5.1524908094   -2.7749291295
H       -1.3890690339   -4.7402916221   -5.7483532825
H       -1.5110920487   -2.6194267066   -4.1929938031
H        0.1502969469   -6.5849595855   -4.7810331576
H       -0.4998009714    1.1488730355   -0.3285641339
H       -0.0811872348    0.4597888235    1.2566488876
H        1.2046151177    0.9571844890    0.1405105722
H       -0.3538877568   -0.7068136313   -3.7732450841
H       -0.2078541005    0.6300534196   -2.6567329131
H        0.8274511744   -3.9325222427   -0.2810393490
H       -3.6868594059    0.5679860407   -1.8968465630
25   

C       -0.7379676695   -4.6495717604   -4.9994701541
C       -0.6672549207   -3.4507610624   -4.1768334827
C       -0.2095913060   -5.7429932527   -4.3684321496
C       -0.0999802193   -1.3715078429   -1.7886447137
C        0.1230669007   -2.7236446444   -1.8674474981
C       -0.0799948880   -3.6698881101   -2.9498637425
C        0.3598184110   -0.9790599578   -0.4680919585
C       -2.1454084899   -0.3540991778   -2.8607591735
C        0.3126397545    0.3860267153    0.1536625848
C       -0.6198773076   -0.3949403101   -2.8247204266
N        0.8179736377   -2.0215477502    0.1697587449
N        0.6795215568   -3.0844241560   -0.6690756187
O       -2.7125331798   -0.7371741218   -3.8711334710
O       -2.7934237274    0.1606756023   -1.7870455985
S        0.3894535653   -5.3516370482   -2.7632071763
H       -1.1673782132   -4.6708506499   -5.9954368907
H       -1.0634963674   -2.5061913397   -4.5186814865
H       -0.1644873009   -6.7366563721   -4.7991948973
H       -0.4966454608    0.9813937156   -0.2757785598
H        0.1530406461    0.2990108330    1.2321643843
H        1.2629849846    0.8988046515   -0.0167844860
H       -0.2192127020   -0.6357696623   -3.8116258771
H       -0.2608183343    0.6111191192   -2.5951588765
H        0.9538892918   -4.0390887354   -0.4465644845
H       -3.7431053104    0.0986858116   -1.9798293600
25   

C       -0.7955674747   -4.5213381176   -4.9197204977
C       -0.5091708606   -3.3103863863   -4.1644477811
C       -0.6848605553   -5.6495123343   -4.1515997343
C       -0.0479699713   -1.2428991868   -1.7475815710
C        0.1362986170   -2.5998858606   -1.8109688338
C       -0.1963372879   -3.5602435353   -2.8467708235
C        0.4673727833   -0.8443748570   -0.4501372227
C       -2.1500956627   -0.5678184498   -2.9891131296
C        0.4613549744    0.5284435541    0.1554460362
C       -0.6628525115   -0.3019476803   -2.7653338703
N        0.9190539983   -1.8905521970    0.1879872945
N        0.7181172877   -2.9630919081   -0.6264854747
O       -2.5488250679   -0.6499937518   -4.1398626215
O       -2.9564077171   -0.6853574241   -1.9052218948
S       -0.2327103272   -5.2787351269   -2.4934267885
H       -1.0671808241   -4.5250446549   -5.9699776096
H       -0.5408929903   -2.3301566214   -4.6195563552
H       -0.8561648169   -6.6564612123   -4.5144821677
H       -0.4351691517    1.0765661830   -0.1447742231
H        0.4804443175    0.4564777420    1.2468576582
H        1.3458114028    1.0795325573   -0.1748854540
H       -0.1210021641   -0.3749202810   -3.7109919554
H       -0.5571255145    0.7323101956   -2.4316770559
H        0.9632128097   -3.9235456151   -0.3951236929
H       -3.8465770418   -0.8808097935   -2.2392045588
25   

C       -0.7846916522   -4.4262070744   -4.9211178320
C       -0.3473617750   -3.2566310146   -4.1727969187
C       -0.9794376285   -5.5156816143   -4.1120385586
C       -0.0201801818   -1.2073627052   -1.7206964469
C        0.1613939949   -2.5610809937   -1.7944851607
C       -0.2312951121   -3.5034631077   -2.8252391934
C        0.5416692236   -0.8180560003   -0.4401670147
C       -2.1427961168   -0.7532462117   -3.0496925170
C        0.6210860383    0.5615536775    0.1438159253
C       -0.7268448146   -0.2931125347   -2.7039907209
N        1.0270486793   -1.8679098936    0.1693384349
N        0.8019533340   -2.9364345373   -0.6457055590
O       -2.4839676004   -0.7058200367   -4.2208123805
O       -2.9498209813   -1.1888536155   -2.0505850919
S       -0.6409137237   -5.1594570859   -2.4221238179
H       -0.9409423069   -4.4300968242   -5.9946030967
H       -0.1373758682   -2.3013922172   -4.6382007122
H       -1.3067921532   -6.4873935195   -4.4635748606
H       -0.2791772548    0.7607538877    0.7315404178
H        1.4910053323    0.6393280194    0.8023506623
H        0.7056067954    1.3124684785   -0.6451445818
H       -0.1329034163   -0.2155722845   -3.6181558502
H       -0.8062755083    0.7126350644   -2.2864199378
H        1.0612646816   -3.8979178523   -0.4350920184
H       -3.7786659047   -1.4745812958   -2.4666962591
25   

C       -0.7131896379   -4.4174356301   -4.9412008296
C       -0.1882716196   -3.2798390604   -4.1995794588
C       -1.1321746477   -5.4272835483   -4.1123042134
C       -0.0519759481   -1.1804794978   -1.7495017791
C        0.1718113997   -2.5252711840   -1.8187964623
C       -0.2252845715   -3.4783871825   -2.8413467857
C        0.5495130431   -0.7630833234   -0.4966529042
C       -2.1869768100   -0.8869872329   -3.1139539302
C        0.6012324433    0.6229474407    0.0744252821
C       -0.8247766630   -0.3123968306   -2.7248564044
N        1.1047826668   -1.7904248236    0.0935591698
N        0.8860729557   -2.8729405894   -0.7059712785
O       -2.5059848822   -0.8394162493   -4.2913360981
O       -2.9734631379   -1.4185780285   -2.1453546662
S       -0.9040541626   -5.0346939348   -2.4109173784
H       -0.7717271103   -4.4555340385   -6.0237318682
H        0.1794622748   -2.3738349752   -4.6673739454
H       -1.5595162078   -6.3621107495   -4.4564213355
H       -0.2561630657    0.7770406073    0.7352069164
H        1.5173161004    0.7523814312    0.6578889365
H        0.5777406883    1.3714272648   -0.7209939106
H       -0.2245042045   -0.1662397219   -3.6267096882
H       -0.9998558031    0.6722966636   -2.2862527064
H        1.1946084132   -3.8223029715   -0.5069568031
H       -3.7605389061   -1.7710795078   -2.5902630995
25   

C       -0.6553782564   -4.4244846224   -4.9194952124
C       -0.0500986564   -3.3393005107   -4.1603902827
C       -1.2934525020   -5.3304382055   -4.1094876715
C       -0.0851654710   -1.1885578890   -1.7047054590
C        0.1652545316   -2.5261101571   -1.7853742145
C       -0.2430742693   -3.4791156316   -2.8092347801
C        0.5648899648   -0.7592373605   -0.4808649114
C       -2.2339843308   -0.9823966827   -3.0677944378
C        0.6093485261    0.6273008733    0.0891739065
C       -0.9081784638   -0.3418116948   -2.6571581850
N        1.1787203195   -1.7729836589    0.0753113716
N        0.9510404605   -2.8592106317   -0.7174584571
O       -2.5338994861   -0.9569699320   -4.2508774467
O       -3.0145795947   -1.5395439430   -2.1089838107
S       -1.1802111809   -4.9024618420   -2.4046294485
H       -0.6142868301   -4.4996446244   -6.0008593010
H        0.4752409213   -2.5034980235   -4.6086140370
H       -1.8143754750   -6.2101547256   -4.4695381350
H       -0.2069496417    0.7534151019    0.8055224289
H        1.5573426538    0.7858806324    0.6112303694
H        0.5089748921    1.3747534482   -0.7012448112
H       -0.3163998152   -0.1401647061   -3.5541429379
H       -1.1386296214    0.6192348741   -2.1921334585
H        1.2981775441   -3.7998132965   -0.5416483481
H       -3.7746139082   -1.9324517130   -2.5668442578
25   

C        0.3447733529   -4.9054893879   -4.5164016671
C        0.7839158802   -3.9109127930   -3.5472811754
C       -0.9431416601   -5.3199935369   -4.2835836252
C       -0.0651984915   -1.2857775697   -1.6174283948
C       -0.0743647676   -2.6433029655   -1.5445381946
C       -0.1865183346   -3.6273783162   -2.6204938810
C        0.0865233445   -0.8327896172   -0.2483334923
C       -1.6643989637   -0.0317087364   -3.0600370138
C        0.1711981302    0.5830710649    0.2386330469
C       -0.2078728548   -0.4374977980   -2.8597993028
N        0.1604221586   -1.8664578347    0.5519808019
N        0.0607877156   -2.9818403793   -0.2278357444
O       -2.3550352245   -0.6922175711   -3.8185127108
O       -2.1049506217    1.0804303925   -2.4207792767
S       -1.6624047406   -4.5246226429   -2.8858655048
H        0.9612375743   -5.2699502854   -5.3310587092
H        1.7591734824   -3.4374117722   -3.5569891328
H       -1.4699912788   -6.0492909689   -4.8880690826
H       -0.8070649160    0.8989607472    0.6106838652
H        0.8927420602    0.6529625726    1.0574351646
H        0.4754903723    1.2555024761   -0.5664622187
H        0.1381776759   -0.9887007523   -3.7383630704
H        0.4052902711    0.4628720402   -2.7745356556
H        0.0760538108   -3.9415366712    0.1113843048
H       -3.0442435324    1.1738074496   -2.6494818088
25   

C        0.4226285973   -5.0569382379   -4.4138530703
C        0.8776301039   -4.0990863346   -3.4153908999
C       -0.9374604104   -5.2395937881   -4.3719159523
C       -0.0961126512   -1.2652180202   -1.6427976021
C       -0.0346463348   -2.6213253610   -1.5858038933
C       -0.1577080707   -3.6046496031   -2.6641894282
C        0.0887818812   -0.8197982131   -0.2754141116
C       -1.7898165365   -0.0315028057   -2.9977240707
C        0.1312568699    0.5939663995    0.2226951059
C       -0.3189923749   -0.4150540269   -2.8717291971
N        0.2410034398   -1.8572824237    0.5092853356
N        0.1620425807   -2.9684091474   -0.2791674586
O       -2.5100273704   -0.7078276803   -3.7135561494
O       -2.2119387775    1.0801791377   -2.3454337242
S       -1.7084757157   -4.2621263553   -3.1254285048
H        1.0810877392   -5.5627551050   -5.1118192803
H        1.9115671793   -3.8017261777   -3.2808206700
H       -1.4869137135   -5.9035607722   -5.0292739755
H       -0.8451728523    0.8649677147    0.6329181059
H        0.8787768807    0.6875625543    1.0154105160
H        0.3772971535    1.2851225562   -0.5865420233
H       -0.0083534428   -0.9583513713   -3.7686341191
H        0.2837740716    0.4945712792   -2.8136900242
H        0.2253348304   -3.9300751094    0.0486606256
H       -3.1625638221    1.1600175267   -2.5277070688
25   

C        0.4695757562   -5.1489300542   -4.3321027436
C        0.9379915248   -4.2419762750   -3.2931324490
C       -0.8892584117   -5.0711616638   -4.5110067402
C       -0.0613180653   -1.1993717452   -1.6508968372
C        0.0518342948   -2.5536687109   -1.6459483201
C       -0.0855882678   -3.5146572122   -2.7404103529
C        0.1522352577   -0.7975989231   -0.2740814339
C       -1.8047701308    0.1400997137   -2.8445486683
C        0.1730417572    0.5989346512    0.2715801525
C       -0.3463744288   -0.3079349452   -2.8373822464
N        0.3598180453   -1.8566618796    0.4680338456
N        0.2913629935   -2.9412066502   -0.3573677540
O       -2.6261661913   -0.5546456552   -3.4197502336
O       -2.1072614487    1.3216580871   -2.2518271389
S       -1.6426438955   -3.8998472989   -3.4323913240
H        1.1187284992   -5.8081999460   -4.8983207128
H        1.9743067973   -4.1482942723   -2.9884063509
H       -1.4471141394   -5.6564948746   -5.2328718172
H       -0.7947011970    0.8275163210    0.7257712594
H        0.9464739824    0.6873343326    1.0396819683
H        0.3704172550    1.3236195990   -0.5217113765
H       -0.1280556705   -0.8376228626   -3.7689297639
H        0.2989722156    0.5735618460   -2.8038288641
H        0.3811764798   -3.9118507896   -0.0642899744
H       -3.0669043605    1.4372709166   -2.3478143162
25   

C        0.4826297190   -5.3084152932   -4.2436085047
C        0.9177361233   -4.4135037666   -3.1801207069
C       -0.8154493792   -5.0701244087   -4.6198518950
C       -0.1436386720   -1.2049341621   -1.7325191751
C        0.0481074229   -2.5516228068   -1.7314263656
C       -0.0657976036   -3.5310813951   -2.8070151948
C        0.1038522087   -0.7878724003   -0.3656103171
C       -1.9782995908    0.0967535451   -2.8384632303
C        0.0757558789    0.6098620120    0.1768722979
C       -0.5127603316   -0.3236120467   -2.9041489966
N        0.4021984594   -1.8306970562    0.3681815147
N        0.3619426056   -2.9196159270   -0.4526763577
O       -2.8173332847   -0.6276823645   -3.3475465304
O       -2.2703645779    1.2877080526   -2.2597811796
S       -1.5489598600   -3.7569852149   -3.7037401660
H        1.1108206852   -6.0741203288   -4.6860461649
H        1.9055950529   -4.4382885569   -2.7341151115
H       -1.3407398952   -5.6191273602   -5.3928903302
H       -0.8913090272    0.7983985297    0.6503577608
H        0.8606695788    0.7341068955    0.9282249398
H        0.2258103301    1.3397383210   -0.6220457274
H       -0.3303467151   -0.8491822361   -3.8455028678
H        0.1153322876    0.5709758221   -2.9057367598
H        0.5116668778   -3.8827989339   -0.1599998649
H       -3.2358913215    1.3835322829   -2.3059640886
25   

C        0.4289959683   -5.3835418277   -4.1580138066
C        0.8319369476   -4.5309443689   -3.0482791089
C       -0.7595065521   -4.9813987130   -4.7124255640
C       -0.1695538268   -1.1865964492   -1.7345985083
C        0.0471562907   -2.5318163785   -1.7475490235
C       -0.0642518194   -3.5151654338   -2.8149111295
C        0.1262528703   -0.7696866855   -0.3766756860
C       -2.0532920497    0.1034440804   -2.7759922941
C        0.0955239578    0.6245174977    0.1755290237
C       -0.5823435166   -0.2899308871   -2.8809021964
N        0.4781597277   -1.8076754446    0.3389812366
N        0.4271625913   -2.8934135373   -0.4843544963
O       -2.8904912688   -0.6200538166   -3.2892555026
O       -2.3530490470    1.2734382251   -2.1598061170
S       -1.4246197594   -3.5612485323   -3.9121438484
H        1.0016391459   -6.2365736342   -4.5060282562
H        1.7416942854   -4.6783017951   -2.4777236108
H       -1.2438936380   -5.4721109767   -5.5487784718
H       -0.8577534174    0.7956088654    0.6823543135
H        0.9034265195    0.7563374281    0.9008085163
H        0.2079132324    1.3620689590   -0.6224159265
H       -0.4065283037   -0.7882678297   -3.8376707047
H        0.0281437479    0.6166858067   -2.8774918323
H        0.6075951494   -3.8533741496   -0.1993935491
H       -3.3206602167    1.3547109259   -2.1856788203
25   

C        0.3499866253   -5.5242430381   -4.0281322138
C        0.7156299669   -4.7020681657   -2.8833153337
C       -0.6915301914   -4.9853380885   -4.7381248083
C       -0.1709560596   -1.2278034445   -1.7090057499
C        0.0586208840   -2.5741769656   -1.7235764376
C       -0.0622613307   -3.5717850708   -2.7735952807
C        0.1842477098   -0.7975560122   -0.3684258211
C       -2.1184998542   -0.0141091406   -2.7294782903
C        0.1622644977    0.5973243740    0.1839635430
C       -0.6276453509   -0.3233464140   -2.8341771573
N        0.5869660699   -1.8244130926    0.3348427437
N        0.5128497887   -2.9150700743   -0.4784448804
O       -2.8989671369   -0.6568445897   -3.4118702465
O       -2.4966875336    1.0093057435   -1.9242454900
S       -1.2585428709   -3.4707282767   -4.0443674109
H        0.8447475316   -6.4533075282   -4.2903569644
H        1.5234341065   -4.9541374615   -2.2065937854
H       -1.1244969525   -5.4299255967   -5.6268315844
H       -0.7720489460    0.7595399444    0.7276704223
H        0.9966048497    0.7374130260    0.8770735324
H        0.2362419802    1.3368637957   -0.6162695726
H       -0.4109472488   -0.7762415980   -3.8044644125
H       -0.0727453958    0.6172871594   -2.8000552847
H        0.7255567776   -3.8681220711   -0.1939178144
H       -3.4651587257    1.0568527494   -1.9799318624
25   

C        0.2483371032   -5.5580699548   -3.9438294895
C        0.5597996667   -4.7613142444   -2.7656148129
C       -0.5826573364   -4.8959809288   -4.8088590604
C       -0.1655702168   -1.1641785068   -1.7355226288
C        0.0805820470   -2.5119024531   -1.7486288515
C       -0.0484109165   -3.5247645405   -2.7823181867
C        0.2565599476   -0.7126326011   -0.4206926496
C       -2.1823135863   -0.0900732585   -2.8010809533
C        0.2196119949    0.6811456696    0.1344917437
C       -0.6641902517   -0.2516739829   -2.8384338447
N        0.6918597748   -1.7269031843    0.2787660074
N        0.5803054097   -2.8282187828   -0.5133892106
O       -2.8507640362   -0.6446092495   -3.6575479560
O       -2.7094585323    0.7228144499   -1.8522767711
S       -1.0115589043   -3.2936300283   -4.2235161091
H        0.6313466430   -6.5577760036   -4.1187604316
H        1.2142559174   -5.1135146145   -1.9778609096
H       -0.9409518227   -5.3005997035   -5.7484439047
H       -0.4890079397    1.3051806179   -0.4138240612
H       -0.0727722532    0.6537294732    1.1878842452
H        1.2145424714    1.1284965808    0.0636497216
H       -0.3516750185   -0.6230415956   -3.8168747268
H       -0.2111721271    0.7367049387   -2.7279365218
H        0.8162822962   -3.7734648882   -0.2229346071
H       -3.6720844973    0.7036461146   -1.9782099139
25   

C       -0.0648612663   -5.5860442658   -3.8258174563
C        0.2704506250   -4.7888433454   -2.6543592947
C       -0.6406839863   -4.8328146522   -4.8148301699
C       -0.1093276461   -1.0691088845   -1.8209780766
C        0.1480848970   -2.4163602019   -1.8128005747
C       -0.0644025025   -3.4598964839   -2.8006841530
C        0.3577096128   -0.5803295219   -0.5365142941
C       -2.2259557243   -0.2022177642   -2.9028541374
C        0.2743364527    0.8205817172   -0.0054736833
C       -0.6986638629   -0.1858311700   -2.9045402993
N        0.8473959531   -1.5685533690    0.1632241109
N        0.7210570988   -2.6890629221   -0.5991937953
O       -2.8016593462   -0.3416791916   -3.9696036388
O       -2.8701063446   -0.0368764001   -1.7201175366
S       -0.7934678379   -3.1411661547   -4.3581899463
H        0.1194975660   -6.6519431972   -3.9072173728
H        0.7346318618   -5.2142253192   -1.7734963111
H       -0.9688620399   -5.2219426815   -5.7718525975
H       -0.5742721594    1.3505964844   -0.4449386516
H        0.1537452075    0.8009598720    1.0814274382
H        1.1952843691    1.3587923906   -0.2445715078
H       -0.3208574617   -0.4825924331   -3.8851661886
H       -0.3738947573    0.8463314129   -2.7551828022
H        1.0139780308   -3.6171752872   -0.3065507934
H       -3.8199845534   -0.0928817653   -1.9117348724
