22   

C        1.8248828529   -0.2121663504    0.1148658137
C        0.5379470853   -0.4647972609    0.5829362143
C        2.9238848726   -0.4465867882    0.9438792333
C        0.3549000618   -0.9564639847    1.8761668613
C        2.7602446371   -0.9282505904    2.2537354472
C        1.4486030468   -1.1953777196    2.7263996255
C        3.9531985060   -1.1290921218    3.0993932345
C        5.2694877430   -0.8026800157    2.8750549637
C        1.1965873856   -1.7555928789    4.1062545682
C        6.3746217888   -1.6108833429    2.2243155503
H        1.9733982956    0.1683534715   -0.8891568953
H       -0.3191150797   -0.2827032197   -0.0554252676
H        3.9191017697   -0.2409381176    0.5679799016
H       -0.6528908435   -1.1552554251    2.2218560073
H        3.7263840879   -1.2972992683    4.1443396296
H        5.7071074680   -0.3760458908    3.7714239637
H        1.7808535784   -2.6690587532    4.2547551556
H        1.4749562911   -1.0210668570    4.8678664584
H        0.1401396691   -2.0062564761    4.2406426110
H        7.1789192731   -1.8079307533    2.9396542771
H        5.9808418933   -2.5673948428    1.8673887503
H        6.7859283680   -1.0617548601    1.3724203773
22   

C        1.9195372212   -0.2860677721    0.1157437421
C        0.6179738665   -0.5043749730    0.5594833873
C        2.9930244299   -0.4848916431    0.9864188874
C        0.3947322723   -0.9256817075    1.8709113076
C        2.7888643338   -0.8920198415    2.3165916628
C        1.4619654479   -1.1244651301    2.7639513759
C        3.9509288606   -1.0579426601    3.2115149556
C        5.2683485942   -0.7942056483    2.9670551580
C        1.1680474900   -1.6252960330    4.1582542287
C        6.2419611261   -1.5944965357    2.1295795955
H        2.0992194285    0.0408987739   -0.9019523509
H       -0.2191687764   -0.3514739082   -0.1121087254
H        3.9982511299   -0.3033086406    0.6259912175
H       -0.6236217953   -1.1034778672    2.1964839055
H        3.7000195979   -1.1350302243    4.2618594787
H        5.7846570734   -0.4505011358    3.8570425741
H        1.7621794765   -2.5198067856    4.3702820249
H        1.4043479313   -0.8518762606    4.8949386562
H        0.1123089634   -1.8922648966    4.2639737357
H        7.0958048331   -1.9114282011    2.7360247167
H        5.7496895724   -2.4842242242    1.7249174969
H        6.6064391900   -0.9858358209    1.2969833440
22   

C        1.9927581082   -0.3619956519    0.1189148535
C        0.6818459817   -0.5518843340    0.5465564141
C        3.0474268215   -0.5123109989    1.0216407030
C        0.4303493446   -0.8946648114    1.8752171296
C        2.8154364435   -0.8377613234    2.3709119676
C        1.4779258376   -1.0394562477    2.8012759848
C        3.9496860461   -0.9540397934    3.3096488035
C        5.2718480682   -0.8033437466    3.0405424708
C        1.1545090816   -1.4750181115    4.2108558358
C        6.1010109956   -1.6096942927    2.0681300118
H        2.1944482920   -0.0929140818   -0.9115198360
H       -0.1403982903   -0.4385387580   -0.1507936314
H        4.0566533184   -0.3452792962    0.6677460150
H       -0.5946655076   -1.0564506417    2.1879227077
H        3.6901004773   -0.9442101873    4.3609109037
H        5.8580978094   -0.5220576961    3.9087354926
H        1.7631352270   -2.3423925898    4.4858570058
H        1.3495370767   -0.6595766969    4.9132036378
H        0.1034567756   -1.7660246080    4.2986751944
H        6.9727834876   -2.0336936760    2.5754750360
H        5.5075464058   -2.4288533955    1.6500871406
H        6.4464583261   -0.9707037287    1.2502315029
22   

C        2.0315764212   -0.4120938808    0.1272130953
C        0.7161733237   -0.5864571056    0.5452133555
C        3.0750980106   -0.5219795034    1.0483295601
C        0.4489115187   -0.8701619485    1.8840637372
C        2.8291929341   -0.7905430184    2.4091641409
C        1.4847418469   -0.9707725124    2.8290885047
C        3.9408906428   -0.8659347598    3.3788418925
C        5.2662531168   -0.8478981216    3.1106868506
C        1.1427139823   -1.3566779967    4.2488154624
C        5.9805488523   -1.6240643588    2.0322286914
H        2.2457115419   -0.1835972441   -0.9104886744
H       -0.0970789752   -0.5059572667   -0.1670876413
H        4.0826762698   -0.3536981701    0.6938646336
H       -0.5795585868   -1.0227454079    2.1898827496
H        3.6779577059   -0.7956281788    4.4271095882
H        5.8950184753   -0.6396202813    3.9695871938
H        1.7610703364   -2.2015980854    4.5686985676
H        1.3092509313   -0.5112850609    4.9222523751
H        0.0960948085   -1.6656661030    4.3281049478
H        6.8488613782   -2.1387271185    2.4544540387
H        5.3151937926   -2.3739321898    1.5928313506
H        6.3262361554   -0.9467490163    1.2458323239
22   

C        2.0514308851   -0.4427994214    0.1339117283
C        0.7360732726   -0.6096511436    0.5525223656
C        3.0926150735   -0.5192091706    1.0608075950
C        0.4664252046   -0.8487119038    1.8989486925
C        2.8468140678   -0.7478440385    2.4304152912
C        1.4996286184   -0.9132150095    2.8501341687
C        3.9458931223   -0.7887228665    3.4177773021
C        5.2640742623   -0.9128678013    3.1642209043
C        1.1524222497   -1.2620506333    4.2783252396
C        5.8994606687   -1.6321136966    2.0022226780
H        2.2676371062   -0.2429576014   -0.9092705748
H       -0.0750641504   -0.5562963113   -0.1647243465
H        4.0944193784   -0.3417773722    0.6978160689
H       -0.5622999727   -0.9966208784    2.2060994874
H        3.6851884312   -0.6743498035    4.4628071641
H        5.9149905973   -0.7797569646    4.0215141037
H        1.7807312603   -2.0877528570    4.6278414761
H        1.2999155717   -0.3948142594    4.9278041885
H        0.1105469841   -1.5865788415    4.3583516301
H        6.7629879494   -2.2065772167    2.3506488452
H        5.1927876192   -2.3294685486    1.5416132424
H        6.2455590422   -0.9134034491    1.2536422210
22   

C        2.0589565276   -0.4695174870    0.1371595826
C        0.7442383558   -0.6217952242    0.5611661457
C        3.1013168470   -0.5247787477    1.0640620838
C        0.4763809797   -0.8223166648    1.9137024167
C        2.8595696995   -0.7188581567    2.4407434345
C        1.5106911874   -0.8638904445    2.8651073576
C        3.9528406501   -0.7386497734    3.4356488000
C        5.2544893322   -0.9988925713    3.2117394484
C        1.1619806237   -1.1791045952    4.3009084466
C        5.8636128270   -1.6272916029    1.9867068803
H        2.2740575851   -0.2952435145   -0.9108337280
H       -0.0676209988   -0.5858076298   -0.1563455276
H        4.0981880690   -0.3479872887    0.6897966686
H       -0.5523096641   -0.9596216255    2.2257650986
H        3.6935172058   -0.5970877746    4.4776946546
H        5.9035376152   -0.9427696300    4.0788854921
H        1.7912270176   -1.9950784662    4.6711180434
H        1.3058432026   -0.2963730269    4.9298641135
H        0.1210658815   -1.5052759611    4.3867297653
H        6.7333884747   -2.2248235891    2.2757067914
H        5.1512965893   -2.2945921473    1.4919198518
H        6.2003993401   -0.8553047334    1.2886233234
22   

C        2.0532990116   -0.4959711982    0.1369286445
C        0.7393739849   -0.6229818851    0.5700872348
C        3.0995632948   -0.5402243272    1.0599456888
C        0.4762451425   -0.7858015781    1.9281954917
C        2.8641086041   -0.6975869135    2.4429809536
C        1.5145000979   -0.8147248507    2.8758497064
C        3.9580651193   -0.7077045078    3.4381311429
C        5.2327158947   -1.0947516037    3.2469790540
C        1.1671105608   -1.0964053031    4.3190883791
C        5.8574555298   -1.6106930191    1.9790487789
H        2.2651111399   -0.3489536774   -0.9159025692
H       -0.0753797562   -0.5964790058   -0.1445504629
H        4.0930326693   -0.3780623638    0.6721612985
H       -0.5523323251   -0.9050838710    2.2478715520
H        3.6995710106   -0.5504366343    4.4780611585
H        5.8641614486   -1.1146818315    4.1286066279
H        1.7896994554   -1.9104991980    4.7045211954
H        1.3203287872   -0.2021991780    4.9292261743
H        0.1238437896   -1.4122674564    4.4144209241
H        6.7474864729   -2.1980027742    2.2239322802
H        5.1674948048   -2.2669890083    1.4401127170
H        6.1692289637   -0.7794760807    1.3398306000
22   

C        2.0640205477   -0.4110135706    0.1476717840
C        0.7498632340   -0.4545123492    0.5977295435
C        3.0964899485   -0.8750917802    0.9645896094
C        0.4724303633   -0.9691002130    1.8624595391
C        2.8446591691   -1.4084809087    2.2465575105
C        1.4961266378   -1.4572458975    2.6933968234
C        3.9260596001   -1.9396228117    3.1032682177
C        5.2378426250   -1.6446831955    3.0370857067
C        1.1405626090   -1.9136111996    4.0890283889
C        5.8809450618   -0.4963587654    2.3060412440
H        2.2859340786   -0.0287547526   -0.8420567203
H       -0.0541200074   -0.0892783861   -0.0311175859
H        4.0916100237   -0.8675576375    0.5465432888
H       -0.5550067189   -0.9774409266    2.2070510026
H        3.6500214323   -2.5881475231    3.9256845449
H        5.8745128143   -2.1602706828    3.7478429658
H        1.2486576118   -2.9983499132    4.1736050011
H        1.7910822950   -1.4257110004    4.8222389686
H        0.1096454156   -1.6432983109    4.3368127752
H        6.2014048919   -0.8101159121    1.3082581579
H        5.1959678571    0.3535948738    2.2293330566
H        6.7656918799   -0.1617541527    2.8558940400
22   

C        2.0566629226   -0.4295246975    0.1344552401
C        0.7415559851   -0.4568929615    0.5849948479
C        3.0866630662   -0.8776291561    0.9635152897
C        0.4608274450   -0.9365719901    1.8632066761
C        2.8291081864   -1.3790193285    2.2561006250
C        1.4821338335   -1.4070935622    2.7069894633
C        3.9150337739   -1.8907034038    3.1183492119
C        5.2400121978   -1.6998802725    2.9590494615
C        1.1262314966   -1.8322840109    4.1121631355
C        5.9150569331   -0.5078940355    2.3307756808
H        2.2809870474   -0.0706318124   -0.8634354883
H       -0.0607414103   -0.1050262818   -0.0535524216
H        4.0872956218   -0.8771086151    0.5565903762
H       -0.5668652407   -0.9326452856    2.2071931886
H        3.6361152944   -2.5178481560    3.9562196977
H        5.8739867067   -2.2782150226    3.6223505623
H        1.2370186870   -2.9146608691    4.2210863350
H        1.7754866065   -1.3269006356    4.8345009171
H        0.0941623569   -1.5597633696    4.3525647199
H        6.2481225199   -0.7501383323    1.3173222202
H        5.2381333134    0.3515163972    2.2985190082
H        6.7918229188   -0.2258312685    2.9213786623
22   

C        2.0352319084   -0.4546905695    0.1101619934
C        0.7212579559   -0.4759646099    0.5666963050
C        3.0708569503   -0.8685376672    0.9502106502
C        0.4475107075   -0.9115667036    1.8627449083
C        2.8177360668   -1.3290617652    2.2572417952
C        1.4748749460   -1.3453398466    2.7186115803
C        3.9198344465   -1.7996901563    3.1208236859
C        5.2469771090   -1.7224261708    2.8729396210
C        1.1286463299   -1.7325876760    4.1369537975
C        5.9987333743   -0.5274471151    2.3412925180
H        2.2541158221   -0.1246791610   -0.8988340876
H       -0.0857438247   -0.1519174785   -0.0805862103
H        4.0766137347   -0.8643917454    0.5532182970
H       -0.5790901155   -0.9035491378    2.2099993139
H        3.6424200497   -2.3893325215    3.9858672996
H        5.8584524814   -2.3632207130    3.4989715458
H        1.2605976220   -2.8088279195    4.2792269178
H        1.7695489638   -1.1929969977    4.8416956658
H        0.0914193540   -1.4739008360    4.3702206297
H        6.3314420723   -0.7162834293    1.3164405901
H        5.3633149952    0.3637093383    2.3536735703
H        6.8782993560   -0.3323236535    2.9621062184
22   

C        1.9952049109   -0.4814851580    0.0805885751
C        0.6846637990   -0.4949758679    0.5493592882
C        3.0403532929   -0.8578095607    0.9266930900
C        0.4241184135   -0.8818812344    1.8640881140
C        2.7983672414   -1.2711830044    2.2498843775
C        1.4616329962   -1.2749765971    2.7272109119
C        3.9214517437   -1.6985684586    3.1090830210
C        5.2419759419   -1.7308743493    2.7963906330
C        1.1311876416   -1.6211786867    4.1597442785
C        6.1077973731   -0.5631689280    2.3833631955
H        2.2037882616   -0.1844778063   -0.9407616291
H       -0.1301207192   -0.2015502400   -0.1027566219
H        4.0490067144   -0.8525706270    0.5339026219
H       -0.5998086402   -0.8695539394    2.2191039587
H        3.6461375874   -2.2442421508    4.0030056762
H        5.8073874693   -2.4416619292    3.3893960771
H        1.2881711509   -2.6889605624    4.3370839744
H        1.7639881678   -1.0445060091    4.8419598029
H        0.0891907604   -1.3795769696    4.3899206071
H        6.4485051164   -0.6952886720    1.3523221411
H        5.5434011457    0.3721047027    2.4518666466
H        6.9827130594   -0.4915591994    3.0364617159
22   

C        1.9200662276   -0.5440152873    0.0378622574
C        0.6193378342   -0.5406295595    0.5345737009
C        2.9856714662   -0.8611144232    0.8827951949
C        0.3892255147   -0.8493886214    1.8758029581
C        2.7739010709   -1.1922928157    2.2327078900
C        1.4482355515   -1.1778064343    2.7398996074
C        3.9266234170   -1.5531267161    3.0810851179
C        5.2385905003   -1.6996196582    2.7315325726
C        1.1486709837   -1.4590201596    4.1933395497
C        6.2506737079   -0.6176219663    2.4240520013
H        2.1050771136   -0.3046471726   -1.0029897394
H       -0.2117090874   -0.2953495473   -0.1169021256
H        3.9901218889   -0.8656750843    0.4773079292
H       -0.6279283019   -0.8296647939    2.2495184291
H        3.6619218521   -2.0203424588    4.0211702383
H        5.7294443141   -2.4713511622    3.3148674837
H        1.3489484635   -2.5095039831    4.4237701291
H        1.7673948007   -0.8240059044    4.8352363691
H        0.1003737952   -1.2481892319    4.4249767859
H        6.6080703469   -0.7220254375    1.3955098654
H        5.7940171489    0.3703403640    2.5384816274
H        7.1048284537   -0.6900042609    3.1040919513
22   

C        1.8227540606   -0.6027080652   -0.0001904255
C        0.5374362136   -0.5835101973    0.5352589149
C        2.9157765730   -0.8693497216    0.8269891337
C        0.3502300156   -0.8251860254    1.8969618677
C        2.7473863716   -1.1288996072    2.1976765631
C        1.4377707635   -1.0987987428    2.7446362091
C        3.9329503842   -1.4362005917    3.0214303385
C        5.2415866369   -1.6451174488    2.6562640925
C        1.1825043812   -1.3240868116    4.2161782443
C        6.3814341860   -0.6558966561    2.5141390567
H        1.9745324465   -0.4142852576   -1.0567763903
H       -0.3150633492   -0.3791527562   -0.1024727648
H        3.9096269112   -0.8857961999    0.3956666807
H       -0.6559381982   -0.7985112523    2.2989262500
H        3.6956183076   -1.8247949401    4.0034294075
H        5.6518326785   -2.4888309378    3.2011037656
H        1.4254761004   -2.3558664507    4.4872195824
H        1.7932885140   -0.6402228175    4.8137685768
H        0.1326579502   -1.1418312354    4.4643311326
H        6.7883480868   -0.6992456139    1.4997519208
H        6.0234135776    0.3603910997    2.7048034655
H        7.1804264961   -0.8853436212    3.2257539664
