19   

C        1.7384419899   -1.2550413339   -0.1122797223
C        0.7594317724   -0.5075775079    0.5303299297
C        2.7566132657   -1.8501374019    0.6347322497
C        0.8073010454   -0.3576060744    1.9153937733
C        2.8280617124   -1.7222434619    2.0404848157
C        1.8262642399   -0.9506732063    2.6864757229
C        3.9374114945   -2.3782579180    2.7466363214
C        1.8205881896   -0.7129792321    4.1780480175
N        4.0768571041   -2.6267519707    4.0910981775
N        5.0301618460   -2.8515689983    2.1031537344
N        5.2770297524   -3.2535563875    4.2090870182
N        5.8283600875   -3.3841372012    3.0607114987
H        1.7153431857   -1.3773120875   -1.1884326489
H       -0.0339060187   -0.0418626543   -0.0418556926
H        3.5107556061   -2.4302256120    0.1154791310
H        0.0396936202    0.2333955969    2.3998319179
H        1.6340956251   -1.6524087269    4.7071424731
H        2.7825630396   -0.3020117189    4.4992559031
H        1.0397016425   -0.0015161826    4.4605778828
19   

C        1.7129374754   -1.2940504975   -0.1207866928
C        0.7450747650   -0.5273953122    0.5192876210
C        2.7303750021   -1.8896769589    0.6275689560
C        0.8041279117   -0.3562383121    1.9025891925
C        2.8048605819   -1.7452875433    2.0284876693
C        1.8220583411   -0.9504426122    2.6730367226
C        3.9194818294   -2.3869559898    2.7407815494
C        1.8515888558   -0.6869226448    4.1595308163
N        3.9559085763   -2.8265543423    4.0413762456
N        5.1183903895   -2.6198858990    2.1598426355
N        5.2106010660   -3.3260490225    4.1994006245
N        5.8819064806   -3.2075950440    3.1139400452
H        1.6822553527   -1.4285952917   -1.1952684184
H       -0.0467379766   -0.0606989427   -0.0541979182
H        3.4837828917   -2.4827234169    0.1216210136
H        0.0492486053    0.2523802412    2.3852102842
H        1.5998734158   -1.6006484555    4.7063001989
H        2.8469646125   -0.3497438071    4.4649110210
H        1.1321412596    0.0891074611    4.4351947681
19   

C        1.7018343478   -1.3117165365   -0.1259327394
C        0.7477903843   -0.5265567362    0.5158737925
C        2.7149296303   -1.9180840665    0.6206143037
C        0.8167249487   -0.3454998221    1.8986290271
C        2.7904109276   -1.7678567995    2.0176848014
C        1.8298562457   -0.9513841609    2.6651502867
C        3.9059646115   -2.4037067755    2.7384499902
C        1.8880639416   -0.6855885518    4.1499699718
N        3.8595509881   -3.0319566131    3.9574608957
N        5.1751592333   -2.4030973753    2.2762030273
N        5.1448365519   -3.4126227834    4.1879984774
N        5.9038012437   -3.0508678764    3.2191041759
H        1.6642328802   -1.4500069604   -1.1997019735
H       -0.0398453850   -0.0514254671   -0.0564300296
H        3.4660188685   -2.5214532750    0.1234472307
H        0.0758343608    0.2788182172    2.3828577147
H        1.6063230745   -1.5875490410    4.7015675072
H        2.9012672739   -0.3930998023    4.4430190430
H        1.2053193498    0.1210847416    4.4309542854
19   

C        2.0351235875   -0.7401682920   -0.1290701869
C        0.8618364667   -0.3414555890    0.5086925607
C        3.0419896017   -1.3722511087    0.6053525316
C        0.7042672200   -0.5687559803    1.8782659951
C        2.8906584990   -1.6312339081    1.9777833104
C        1.7084956498   -1.2058518280    2.6301188222
C        4.0016554027   -2.2597225452    2.7199436545
C        1.5218274652   -1.3995209298    4.1151247326
N        3.9284516676   -3.3778794709    3.5095858224
N        5.2484913278   -1.7466455279    2.7605333720
N        5.1890850388   -3.5175139845    4.0017987085
N        5.9503453451   -2.5783840390    3.5703877066
H        2.1711255413   -0.5573963093   -1.1881220831
H        0.0778404858    0.1508059186   -0.0540453877
H        3.9642011341   -1.6737418702    0.1220343983
H       -0.2069292458   -0.2420388998    2.3641817802
H        1.4039637659   -2.4637367911    4.3403837220
H        2.3936060457   -1.0199539065    4.6574388608
H        0.6355659037   -0.8675133869    4.4718895045
19   

C        2.0221875660   -0.7555440737   -0.1439809528
C        0.8571549682   -0.3442241284    0.5031949056
C        3.0361780882   -1.3821494239    0.5861167906
C        0.7126172809   -0.5554261055    1.8775284906
C        2.8974648847   -1.6165616502    1.9627401206
C        1.7241320840   -1.1859711032    2.6243539574
C        4.0014419009   -2.2501989891    2.7188404210
C        1.5569966304   -1.3824692098    4.1109952207
N        3.9850476501   -3.5049568932    3.2674381095
N        5.1577401764   -1.6256035124    3.0155042546
N        5.1913642176   -3.6052152971    3.8890183928
N        5.8677261175   -2.5234304886    3.7438177058
H        2.1449954672   -0.5878197688   -1.2071170927
H        0.0681204184    0.1430899583   -0.0568004667
H        3.9509610025   -1.6973028761    0.0979202249
H       -0.1932803235   -0.2234066404    2.3696999382
H        1.5105354033   -2.4509611439    4.3426970067
H        2.4068702710   -0.9457203433    4.6450094560
H        0.6400935858   -0.9066698948    4.4696800384
19   

C        2.0190235844   -0.7821087172   -0.1503747379
C        0.8616004285   -0.3513086372    0.4987479944
C        3.0362864450   -1.3995794639    0.5832681718
C        0.7250747325   -0.5389365141    1.8776323758
C        2.9114550334   -1.5936233301    1.9668733952
C        1.7406401997   -1.1585090924    2.6278390218
C        4.0006464738   -2.2497473894    2.7296371082
C        1.5774294916   -1.3534898608    4.1148718811
N        4.1205632086   -3.5935134752    2.9593414635
N        5.0230584174   -1.5822189202    3.2959847654
N        5.2605922420   -3.6960030753    3.6954742948
N        5.7815365791   -2.5381362529    3.8890091709
H        2.1316802321   -0.6397121703   -1.2183143967
H        0.0699053935    0.1279789689   -0.0644092784
H        3.9412335332   -1.7389559922    0.0931157163
H       -0.1783066443   -0.1998976835    2.3696315919
H        1.6283282282   -2.4191859286    4.3592032937
H        2.3792069832   -0.8344590313    4.6494399256
H        0.6167328823   -0.9613987485    4.4599610888
19   

C        2.0163713245   -0.8108400999   -0.1449796061
C        0.8673359578   -0.3530579465    0.4994143865
C        3.0318690248   -1.4191448770    0.5983519247
C        0.7356728293   -0.5102953328    1.8821654477
C        2.9214957066   -1.5676318704    1.9894390053
C        1.7504629420   -1.1195608555    2.6421232130
C        3.9981609506   -2.2489430616    2.7439291312
C        1.5785550939   -1.2985964548    4.1302988785
N        4.3251693580   -3.5743982769    2.6467154291
N        4.8598830434   -1.6116876866    3.5592653039
N        5.3993441500   -3.7055194924    3.4719407955
N        5.7085473583   -2.5752188070    3.9973242861
H        2.1227910212   -0.6998197766   -1.2172763239
H        0.0763303561    0.1186890341   -0.0710279852
H        3.9260883285   -1.7881768775    0.1095597146
H       -0.1651281179   -0.1578918646    2.3694874932
H        1.6973146973   -2.3535358304    4.3968843705
H        2.3342942326   -0.7155602207    4.6655919024
H        0.5879851740   -0.9674688208    4.4542087728
19   

C        2.0175070199   -0.8413084101   -0.1367630434
C        0.8753798127   -0.3520774200    0.4944407278
C        3.0183261582   -1.4550978802    0.6210968705
C        0.7357360131   -0.4860024117    1.8781323087
C        2.9062723215   -1.5765858363    2.0161713816
C        1.7362815276   -1.0996010505    2.6540212287
C        3.9688229597   -2.2750414679    2.7657164490
C        1.5354310033   -1.2620492487    4.1409850519
N        4.4900016513   -3.5007436185    2.4457734059
N        4.6573535591   -1.7310448502    3.7899223344
N        5.4855352512   -3.6818649065    3.3555810206
N        5.5829151851   -2.6625651979    4.1300399491
H        2.1299120451   -0.7518101560   -1.2104690531
H        0.0948997681    0.1237923932   -0.0869727834
H        3.9051183828   -1.8501789197    0.1386842640
H       -0.1623680777   -0.1125175237    2.3546380904
H        1.7153041072   -2.3009544115    4.4348352344
H        2.2334897601   -0.6175772744    4.6837941501
H        0.5158020568   -0.9934343094    4.4308160862
19   

C        2.0025709199   -0.8660268191   -0.1323673776
C        0.8738741615   -0.3555363874    0.5031942719
C        3.0008121271   -1.4860357439    0.6228235357
C        0.7458313454   -0.4750244430    1.8884451376
C        2.9027742339   -1.5971760763    2.0219132325
C        1.7436361935   -1.0946941457    2.6641849726
C        3.9744814546   -2.2924191061    2.7533898635
C        1.5306939735   -1.2423376672    4.1517186897
N        4.6643415792   -3.3832875018    2.2900901661
N        4.5039126765   -1.8806023832    3.9255309946
N        5.5928172429   -3.6244050842    3.2548026874
N        5.5011104500   -2.7587271493    4.1976010870
H        2.1076825619   -0.7874998362   -1.2076822797
H        0.0947198062    0.1255824450   -0.0756794152
H        3.8774689877   -1.8923319669    0.1310531846
H       -0.1438375768   -0.0850983149    2.3676372318
H        1.7380364791   -2.2704813789    4.4645307868
H        2.1985291008   -0.5655264730    4.6931171498
H        0.4990737850   -1.0043586927    4.4254465835
19   

C        1.9927541450   -0.8803940973   -0.1334587857
C        0.8745741361   -0.3541665000    0.5043404948
C        2.9882869061   -1.5052167490    0.6201945928
C        0.7558317473   -0.4622172738    1.8902885256
C        2.8998683855   -1.6129742853    2.0227449082
C        1.7500598044   -1.0878931681    2.6673893615
C        3.9847233421   -2.2993167802    2.7395063757
C        1.5247642184   -1.2126899220    4.1559626625
N        4.8246099294   -3.2320818023    2.1830945014
N        4.3631397251   -2.0580804643    4.0145574999
N        5.6888220388   -3.5494278346    3.1842029083
N        5.4233101813   -2.8728044082    4.2407263216
H        2.0933519745   -0.8090223828   -1.2097183684
H        0.0969189559    0.1315022543   -0.0727597575
H        3.8569668334   -1.9160041170    0.1182234676
H       -0.1268625193   -0.0574012755    2.3700609830
H        1.6891398742   -2.2450850143    4.4797200335
H        2.2115207015   -0.5532808153    4.6951988231
H        0.5012943927   -0.9350585544    4.4227857655
19   

C        1.9751747996   -0.9092800707   -0.1273219179
C        0.8636845419   -0.3743233837    0.5117936643
C        2.9736801042   -1.5284504874    0.6260393768
C        0.7566938098   -0.4661701002    1.8989347787
C        2.8958956685   -1.6285105727    2.0320643820
C        1.7533187832   -1.0870386955    2.6784127058
C        3.9953571539   -2.2994207211    2.7397823891
C        1.5301764857   -1.1696104504    4.1709820631
N        4.9751440889   -3.0481038412    2.1329050208
N        4.2340750000   -2.2555283306    4.0704810047
N        5.7819486749   -3.4490449308    3.1512460776
N        5.3548317783   -2.9920370626    4.2697954502
H        2.0695464385   -0.8480690721   -1.2047828551
H        0.0833291902    0.1079015482   -0.0645636993
H        3.8359975817   -1.9406249243    0.1146513877
H       -0.1205827970   -0.0495327340    2.3785227434
H        1.6103582037   -2.2070789049    4.5096075536
H        2.2692226848   -0.5571748119    4.6963503500
H        0.5349256950   -0.8061579722    4.4413099987
19   

C        1.9490654276   -0.9392299446   -0.1206442098
C        0.8401433564   -0.4037151785    0.5211323035
C        2.9563331252   -1.5452181319    0.6313393206
C        0.7468496482   -0.4782176570    1.9099013531
C        2.8896277786   -1.6356760368    2.0395685775
C        1.7523652063   -1.0857150915    2.6891941157
C        4.0006950205   -2.2926900077    2.7421174567
C        1.5537868123   -1.1137792070    4.1875480689
N        5.1070252528   -2.8291813349    2.1268050551
N        4.1128394592   -2.4722962588    4.0784265762
N        5.8625817502   -3.3241668340    3.1428340693
N        5.2891787717   -3.1184640641    4.2699204985
H        2.0350260669   -0.8885766837   -1.1993624430
H        0.0529187395    0.0687629991   -0.0539591561
H        3.8146632054   -1.9578497621    0.1138339546
H       -0.1260298010   -0.0545751155    2.3913616266
H        1.5254241444   -2.1473225023    4.5457396313
H        2.3655822607   -0.5758853530    4.6865221163
H        0.6119175122   -0.6355361681    4.4700802507
19   

C        1.9397290507   -0.9759630886   -0.1335139240
C        0.8298277795   -0.4379795554    0.5058232785
C        2.9529088556   -1.5676193869    0.6223610911
C        0.7431597289   -0.4916919814    1.8963802871
C        2.8879203361   -1.6436113369    2.0305377487
C        1.7547527206   -1.0844898192    2.6784273693
C        4.0035603975   -2.2841938382    2.7410324163
C        1.5877687756   -1.0618279055    4.1804203861
N        5.2141962926   -2.6012214579    2.1730064303
N        4.0017280163   -2.6898776219    4.0314136977
N        5.9202590786   -3.1903402451    3.1745676736
N        5.2211477673   -3.2418017688    4.2474333711
H        2.0217085331   -0.9380216685   -1.2130575144
H        0.0384615452    0.0236013458   -0.0724206702
H        3.8127860102   -1.9844142968    0.1106087399
H       -0.1263948363   -0.0605668600    2.3772249751
H        1.4549222510   -2.0795935834    4.5596095421
H        2.4648992332   -0.6090685575    4.6527414275
H        0.7120151841   -0.4748979115    4.4707098877
19   

C        1.9090916666   -1.0029486782   -0.1125711590
C        0.8082648852   -0.4509582679    0.5335650692
C        2.9278875302   -1.5921168116    0.6387086671
C        0.7366044426   -0.4855531372    1.9265008232
C        2.8717613131   -1.6541421603    2.0457227526
C        1.7538471665   -1.0763453883    2.7011190506
C        3.9940132613   -2.2776808864    2.7619233294
C        1.6297404596   -1.0282859693    4.2059243018
N        5.2713319812   -2.3887778436    2.2706952535
N        3.9187161950   -2.8978611801    3.9607069138
N        5.9471557710   -3.0694217143    3.2349154112
N        5.1677585740   -3.3633119927    4.2099156338
H        1.9798372010   -0.9761960204   -1.1932317157
H        0.0136625064    0.0090274200   -0.0414898363
H        3.7852116546   -2.0187878639    0.1305042880
H       -0.1220248471   -0.0408616749    2.4145678830
H        1.4306186736   -2.0304231101    4.5974562262
H        2.5533200489   -0.6454588328    4.6510358858
H        0.8108683204   -0.3711964099    4.5116078611
19   

C        1.9022676104   -1.0184997970   -0.1187446467
C        0.8082541894   -0.4504653871    0.5285269242
C        2.9191408996   -1.6121579724    0.6327588309
C        0.7410877920   -0.4719040972    1.9230178990
C        2.8608232298   -1.6648955661    2.0374840594
C        1.7560233698   -1.0682433815    2.6948031379
C        3.9825596008   -2.2750299477    2.7698264874
C        1.6579629119   -1.0183133394    4.2007196779
N        5.3014610151   -2.1880987035    2.4044585384
N        3.8556228128   -3.0999417212    3.8315526837
N        5.9514449583   -2.9592032869    3.3175824645
N        5.1188726637   -3.4851778059    4.1402928707
H        1.9693742002   -0.9988421911   -1.1997749328
H        0.0161698381    0.0129695610   -0.0472186625
H        3.7768489851   -2.0482495458    0.1331559012
H       -0.1094295568   -0.0143702013    2.4133869785
H        1.4310306642   -2.0142339663    4.5929388461
H        2.6036226817   -0.6745666692    4.6314017907
H        0.8688371374   -0.3316781565    4.5194904687
19   

C        1.8963104033   -1.0356748386   -0.1187592581
C        0.8151778978   -0.4424169310    0.5304090697
C        2.9077493865   -1.6406420134    0.6320697839
C        0.7545543370   -0.4496902735    1.9262252970
C        2.8512657270   -1.6791376454    2.0352382057
C        1.7644236525   -1.0571433436    2.6948285437
C        3.9675159454   -2.2887608050    2.7842942818
C        1.6866159303   -1.0128058610    4.2014027190
N        5.2953449434   -2.0127009302    2.5919295084
N        3.8267416922   -3.2988994247    3.6668802680
N        5.9342250063   -2.8689925480    3.4346872486
N        5.0888838802   -3.6106657551    4.0540052993
H        1.9575471444   -1.0256276407   -1.2002573981
H        0.0280649042    0.0294997008   -0.0452563592
H        3.7592571041   -2.0941920831    0.1376632700
H       -0.0849052995    0.0256796345    2.4186398115
H        1.4991719973   -2.0166340832    4.5944254920
H        2.6291040520   -0.6429674523    4.6172955116
H        0.8807201744   -0.3523978505    4.5333579842
19   

C        1.8704605763   -1.0546425388   -0.1293045929
C        0.8092872559   -0.4414293390    0.5362563558
C        2.8870048977   -1.6701148152    0.6066597230
C        0.7716087021   -0.4409003501    1.9336252101
C        2.8533038840   -1.6931356259    2.0094025463
C        1.7874170653   -1.0575900166    2.6861989474
C        3.9635459484   -2.3212377786    2.7613959464
C        1.7382439094   -1.0266825500    4.1938129507
N        5.2507584032   -1.8596218498    2.8180611032
N        3.8569347220   -3.4949659592    3.4128803299
N        5.8984915590   -2.7939876222    3.5660210084
N        5.0965192482   -3.7367921110    3.9083289713
H        1.9111252124   -1.0527084764   -1.2118078787
H        0.0186042167    0.0379109845   -0.0282726612
H        3.7225636506   -2.1421928268    0.1029588448
H       -0.0537101346    0.0458543378    2.4386320023
H        1.6372745281   -2.0439778294    4.5843598626
H        2.6605354689   -0.5900797221    4.5898236797
H        0.8918993834   -0.4312884649    4.5473645292
19   

C        1.8482179413   -1.0720758542   -0.1390923907
C        0.8045629393   -0.4377975467    0.5354729188
C        2.8740286692   -1.6827018384    0.5883561823
C        0.7898098566   -0.4160937361    1.9334916453
C        2.8707783298   -1.6678791825    1.9909939390
C        1.8153108104   -1.0264682970    2.6776962954
C        3.9666648118   -2.3211818288    2.7465600194
C        1.7844162420   -0.9938501604    4.1856395760
N        5.1318352198   -1.7238200120    3.1445448771
N        3.9413501959   -3.6094885617    3.1355332295
N        5.7986987121   -2.7156630190    3.7953891851
N        5.1141466966   -3.8023299606    3.7898293199
H        1.8659195197   -1.0930274288   -1.2220100361
H        0.0067260849    0.0370232025   -0.0227802030
H        3.6909462350   -2.1796558673    0.0784171320
H       -0.0260809104    0.0795018204    2.4451711989
H        1.7628743910   -2.0144282672    4.5805587096
H        2.6792123428   -0.4914280667    4.5663059217
H        0.9023004795   -0.4598445332    4.5496036702
19   

C        1.8273474951   -1.0902458457   -0.1360750638
C        0.7957997836   -0.4386858278    0.5397304992
C        2.8592003919   -1.6925847337    0.5894060656
C        0.7965116938   -0.3966444798    1.9370608399
C        2.8822410815   -1.6431000673    1.9916497692
C        1.8291141332   -0.9971011061    2.6798095479
C        3.9681802901   -2.3195676378    2.7367815640
C        1.7974202486   -0.9600217171    4.1878764788
N        4.9622058226   -1.7022724477    3.4484600053
N        4.0708075598   -3.6576991052    2.8548130915
N        5.6715667328   -2.7342688843    3.9808247096
N        5.1592158359   -3.8609274054    3.6388321686
H        1.8292913926   -1.1342042094   -1.2184500086
H       -0.0074482518    0.0290429356   -0.0167474123
H        3.6613444517   -2.2111800071    0.0774406848
H       -0.0149401543    0.1049330407    2.4499798856
H        1.8703197174   -1.9756077373    4.5897198809
H        2.6416416484   -0.3740588726    4.5639837826
H        0.8695630463   -0.5090889017    4.5504950089
19   

C        1.8159269798   -1.1052480390   -0.1279673284
C        0.7917548172   -0.4378133139    0.5412708699
C        2.8469706217   -1.7016493661    0.6027870919
C        0.7987715446   -0.3770216002    1.9371161840
C        2.8835714748   -1.6292174262    2.0052937515
C        1.8315385312   -0.9706701225    2.6858215172
C        3.9687841710   -2.3149232206    2.7343806191
C        1.7861101330   -0.9205072041    4.1934921334
N        4.8011307375   -1.7586530068    3.6708810797
N        4.2317044670   -3.6320631096    2.6076443522
N        5.5817076306   -2.7962893683    4.0770243659
N        5.2546201295   -3.8758808363    3.4646251094
H        1.8125783186   -1.1677808962   -1.2094331947
H       -0.0118146183    0.0252290406   -0.0186545480
H        3.6408062769   -2.2352566368    0.0928353447
H       -0.0100887982    0.1333516777    2.4454581421
H        1.9299207702   -1.9228633356    4.6091803250
H        2.5799935522   -0.2675578111    4.5684927887
H        0.8239603621   -0.5372147451    4.5444003094
19   

C        1.8115600446   -1.1220722800   -0.1177542835
C        0.7970169954   -0.4336637051    0.5421011979
C        2.8336651079   -1.7232023224    0.6206990276
C        0.8056140951   -0.3571096997    1.9362439373
C        2.8746337864   -1.6393703907    2.0247449221
C        1.8294205531   -0.9554532675    2.6944537541
C        3.9599924878   -2.3277345958    2.7434725150
C        1.7671404978   -0.8845849406    4.2010434814
N        4.6510348546   -1.8762607945    3.8395696536
N        4.3910727088   -3.5643991358    2.4127319845
N        5.5133503921   -2.8866434606    4.1321142213
N        5.3644302899   -3.8599792965    3.3098409397
H        1.8087924817   -1.1969839252   -1.1984480575
H       -0.0001398105    0.0335442855   -0.0235028267
H        3.6197032752   -2.2692882739    0.1114845520
H        0.0028135587    0.1701043580    2.4369686736
H        1.9144262513   -1.8792313792    4.6334712699
H        2.5484327713   -0.2163690451    4.5755286525
H        0.7970364131   -0.5071047221    4.5360392984
19   

C        1.8008122011   -1.1430730933   -0.1135878071
C        0.7982317804   -0.4343595878    0.5396753245
C        2.8149769373   -1.7510608043    0.6292617935
C        0.8127669106   -0.3431516986    1.9317024891
C        2.8618877488   -1.6617753798    2.0359765664
C        1.8281938520   -0.9488275322    2.6964931493
C        3.9514987207   -2.3480409588    2.7456013570
C        1.7580302651   -0.8482805457    4.2014574197
N        4.5098278323   -2.0275470977    3.9587106758
N        4.5575342931   -3.4537549456    2.2563246309
N        5.4619608259   -2.9772191915    4.1594642539
N        5.4904297844   -3.8003373243    3.1773273362
H        1.7967794300   -1.2272939423   -1.1936086433
H        0.0070288529    0.0389942102   -0.0291776917
H        3.5911287966   -2.3052203020    0.1136990449
H        0.0192397982    0.2032782634    2.4265878415
H        1.8565562183   -1.8405709626    4.6524324334
H        2.5627101586   -0.2056494519    4.5712147149
H        0.8027893254   -0.4238258621    4.5226549158
19   

C        1.7851214888   -1.1874483707   -0.1204028218
C        0.7952334380   -0.4554598886    0.5233214943
C        2.7929168273   -1.7972298417    0.6288528587
C        0.8181686156   -0.3410828219    1.9123846345
C        2.8473026993   -1.6936119805    2.0374209285
C        1.8268858853   -0.9486340175    2.6856255524
C        3.9413727971   -2.3720542649    2.7462663155
C        1.7602337545   -0.7999967557    4.1871971094
N        4.3618243829   -2.2061839384    4.0441019160
N        4.7209919248   -3.3071917447    2.1543707971
N        5.4021292541   -3.0688869142    4.1883441616
N        5.6104840292   -3.7051975158    3.0967460808
H        1.7779144550   -1.2872296803   -1.1990964989
H        0.0091450839    0.0204403524   -0.0504863298
H        3.5567952932   -2.3632137645    0.1082722215
H        0.0355280040    0.2281291464    2.3988588822
H        1.7762109386   -1.7839584123    4.6657651482
H        2.6102794874   -0.2106965504    4.5441243138
H        0.8410157831   -0.2923605647    4.4923728117
19   

C        1.7690019417   -1.2234259196   -0.1251564225
C        0.7811884299   -0.4865484570    0.5147002997
C        2.7815466724   -1.8227623588    0.6257991690
C        0.8131257172   -0.3543156695    1.9014723697
C        2.8426805552   -1.7077621576    2.0346118930
C        1.8264778898   -0.9514359991    2.6772974018
C        3.9456562309   -2.3727523235    2.7424947441
C        1.7803580307   -0.7543787268    4.1742560524
N        4.2170642721   -2.4062429088    4.0896771018
N        4.8977458642   -3.0862967864    2.0958680308
N        5.3456891193   -3.1542511465    4.2048852143
N        5.7398683526   -3.5478280097    3.0524418097
H        1.7571036196   -1.3348707899   -1.2026727835
H       -0.0083634840   -0.0180441781   -0.0604439450
H        3.5406506382   -2.3925026947    0.1026114509
H        0.0347202379    0.2239463775    2.3840471148
H        1.6934641935   -1.7212423083    4.6791663381
H        2.6876077002   -0.2468291488    4.5157219839
H        0.9217192369   -0.1431235468    4.4655775706
