28   

C       -3.3214706507    4.3772501416    2.2446399315
C       -3.7921839388    3.1651294159    2.7554376883
C       -2.3286124849    4.3766129620    1.2614650130
C       -3.2728698028    1.9552074184    2.2809261297
C       -1.8001495654    3.1656221447    0.7988147370
C       -2.2641114281    1.9396938590    1.3025335613
C       -0.5315446173    0.3972595081    0.1308222595
C        0.5674884990   -0.1935459659    0.8501465987
C       -0.5199770938    0.0341626088   -1.3278069225
C       -1.7052720252    0.6891145939    0.8350892389
C        1.9132549192   -0.2820771981   -1.1949901375
C        0.6764211404   -0.9294892292   -3.2773193299
N        1.7070878543   -0.5795166467    0.2011089865
N        0.6630009218   -0.3929679473   -1.9211307826
O        0.5057311914   -0.4255333136    2.0447384661
O       -1.5577481619    0.0781249432   -1.9719353023
H       -3.7252397952    5.3147757721    2.6101010453
H       -4.5577318820    3.1612794016    3.5230455274
H       -1.9668333010    5.3148737633    0.8566753466
H       -3.6465974942    1.0250539053    2.6938095747
H       -1.0317418109    3.1797576787    0.0344552402
H       -2.0902440135   -0.1634152200    1.3847095053
H        2.3192190106    0.7296474241   -1.3020982317
H        2.6406380915   -0.9902222870   -1.6059348675
H        1.6009730378   -0.6455742169   -3.7898271059
H       -0.1576689064   -0.5396700034   -3.8696397869
H        0.6066185892   -2.0214774697   -3.2479521225
H        2.3785459166   -1.0895239775    0.7620602013
28   

C       -3.4678824898    4.3766262713    2.0376827880
C       -3.8165466521    3.2244546733    2.7465605344
C       -2.5618773941    4.2908064894    0.9774393231
C       -3.2611010515    1.9891703813    2.3940824320
C       -1.9957768538    3.0568048420    0.6362892324
C       -2.3346324603    1.8905729616    1.3412385514
C       -0.5676688164    0.3065544586    0.3024639628
C        0.4526480083   -0.4794735592    0.9484644014
C       -0.5892822519    0.1153714712   -1.1833444538
C       -1.7301788891    0.6159589429    0.9992064579
C        1.7777606420   -0.5641150306   -1.1156955504
C        0.4940785748   -0.6963205686   -3.2617691399
N        1.5319498225   -0.9474400465    0.2528014069
N        0.5326515679   -0.3829710013   -1.8372144428
O        0.3777458829   -0.7940388550    2.1235314911
O       -1.5907481700    0.4105136289   -1.8196147419
H       -3.9000844968    5.3334298007    2.3082917493
H       -4.5153770182    3.2873615180    3.5729742271
H       -2.2976751667    5.1801624228    0.4168297735
H       -3.5404790186    1.1078619832    2.9603296722
H       -1.3000162732    3.0031664145   -0.1935023894
H       -2.0093172916   -0.1385458436    1.7279410724
H        2.3571565136    0.3651840714   -1.1398285066
H        2.3686783267   -1.3489752291   -1.5997469472
H        0.9309621876    0.1240793505   -3.8396269843
H       -0.5320987111   -0.8591436788   -3.6071728792
H        1.0528879828   -1.6155332434   -3.4640152706
H        2.1476975463   -1.5637874042    0.7691953736
28   

C       -3.5030474045    4.3689104807    1.9203260161
C       -3.7804719911    3.2813075867    2.7512846018
C       -2.6402659012    4.2077905232    0.8335443243
C       -3.1977263728    2.0354185661    2.4935282395
C       -2.0452547256    2.9648767553    0.5869688072
C       -2.3132450257    1.8608503860    1.4140811042
C       -0.5585533986    0.2239358846    0.4581799466
C        0.4171629123   -0.6673268981    1.0348403951
C       -0.5737900502    0.1834651367   -1.0381814923
C       -1.6809349210    0.5709532910    1.1814983987
C        1.7503155623   -0.6373503038   -1.0253668414
C        0.4894640199   -0.4713617036   -3.1814610757
N        1.4688565590   -1.1354590717    0.2984653612
N        0.5265342177   -0.3101404096   -1.7315903651
O        0.3366037329   -1.0596317846    2.1860579301
O       -1.5493405760    0.5918927990   -1.6519980394
H       -3.9568783940    5.3337237348    2.1168892434
H       -4.4452695174    3.4027487610    3.5989631119
H       -2.4316162930    5.0454830712    0.1780099277
H       -3.4227896145    1.2061818601    3.1546801985
H       -1.3836732851    2.8593680288   -0.2649642323
H       -1.9131473832   -0.1131390366    1.9917134316
H        2.3858461588    0.2522386430   -0.9571679979
H        2.2966262082   -1.4069571434   -1.5810345487
H        0.9739136758    0.3813541753   -3.6673081895
H       -0.5392055395   -0.5450178581   -3.5492154513
H        1.0040620403   -1.3917186527   -3.4750885723
H        2.0596454921   -1.8119323761    0.7664637377
28   

C       -3.5257978270    4.3227776642    1.7811207724
C       -3.7430273637    3.2838624768    2.6875581540
C       -2.6849878997    4.1192290521    0.6849640433
C       -3.1240092360    2.0441347361    2.4941196057
C       -2.0538056196    2.8830804308    0.5014233240
C       -2.2646423990    1.8228452537    1.4018539458
C       -0.5523735902    0.1162681034    0.4755546056
C        0.3893240449   -0.8477522422    0.9909209863
C       -0.5681414297    0.1771205109   -1.0189372246
C       -1.6017219237    0.5333862538    1.2552839502
C        1.7320945861   -0.7088180421   -1.0554478587
C        0.4872402843   -0.3591986831   -3.1993281634
N        1.4200332407   -1.3059920735    0.2196140245
N        0.5246972824   -0.2910928691   -1.7419269571
O        0.3106148711   -1.2958784608    2.1218072101
O       -1.5439454944    0.6155225964   -1.6109756518
H       -4.0076492694    5.2829184177    1.9274480576
H       -4.3896218027    3.4381236675    3.5439595408
H       -2.5192415360    4.9197877335   -0.0268055103
H       -3.3049286382    1.2545592205    3.2147487699
H       -1.4035468586    2.7603891945   -0.3553731791
H       -1.7853697214   -0.0911119222    2.1239491190
H        2.3903665908    0.1543086531   -0.9082257765
H        2.2640006927   -1.4451000613   -1.6673641898
H        0.9662769483    0.5258175724   -3.6295681002
H       -0.5413603751   -0.4160822230   -3.5702201423
H        1.0071151392   -1.2553308035   -3.5525212831
H        1.9982507343   -2.0195975633    0.6463164991
28   

C       -3.6680441390    4.4608959525    1.7853527251
C       -3.7728954924    3.4533457494    2.7444078431
C       -2.8773255509    4.2562024723    0.6534308483
C       -3.0947079381    2.2429802457    2.5658587869
C       -2.1867329578    3.0500371101    0.4834652205
C       -2.2890529636    2.0153855379    1.4334058598
C       -0.6164262485    0.2767703450    0.4624806051
C        0.3120486707   -0.7365568922    0.9041675568
C       -0.6535541906    0.4281227142   -1.0242559032
C       -1.5706485656    0.7515161512    1.3198164504
C        1.6387976050   -0.4711586142   -1.1354824501
C        0.3830504179    0.0167742756   -3.2443518093
N        1.3190815549   -1.1664811594    0.0868484869
N        0.4330715866    0.0059776744   -1.7853455187
O        0.2561107023   -1.2375935682    2.0140713172
O       -1.6502277583    0.8617580237   -1.5833965867
H       -4.1960391697    5.3982633764    1.9196346819
H       -4.3785518752    3.6088682250    3.6300402508
H       -2.7941731551    5.0342362272   -0.0967344365
H       -3.1913535530    1.4789067401    3.3290086412
H       -1.5697289472    2.9443544094   -0.3981823033
H       -1.6729216275    0.1685983317    2.2297230843
H        2.3014761581    0.3738295241   -0.9189197993
H        2.1675480608   -1.1590125912   -1.8038855412
H        0.9076483999    0.8957062059   -3.6317536973
H       -0.6478066994    0.0357599016   -3.6124686013
H        0.8516635872   -0.8866605519   -3.6471898452
H        1.9012938238   -1.9035703898    0.4654594749
28   

C       -3.7072987734    4.4364308685    1.7472091054
C       -3.7139237896    3.4765599871    2.7584141370
C       -2.9723090285    4.2057353809    0.5838126606
C       -2.9963989623    2.2866189661    2.5990407132
C       -2.2420184362    3.0205476255    0.4318655691
C       -2.2496747969    2.0277833295    1.4321895253
C       -0.6369354768    0.2197057124    0.4523287466
C        0.2463319681   -0.8455552995    0.8671719004
C       -0.6443921047    0.4254178471   -1.0275293286
C       -1.4954000090    0.7808751293    1.3524531878
C        1.6243240821   -0.5326599299   -1.1281821016
C        0.4347924293    0.0852306166   -3.2408796760
N        1.2475085888   -1.2810656803    0.0456155534
N        0.4511229570    0.0141034780   -1.7825009143
O        0.1687125307   -1.3755852645    1.9622727214
O       -1.6349902394    0.8610386079   -1.5948859840
H       -4.2663065236    5.3577680575    1.8660886037
H       -4.2743234537    3.6528740423    3.6696029463
H       -2.9612986900    4.9488342360   -0.2053171804
H       -3.0196395140    1.5608577574    3.4042485784
H       -1.6644625125    2.9115821191   -0.4741126157
H       -1.5396759590    0.2472236900    2.2965193212
H        2.3049178059    0.2790828477   -0.8489987803
H        2.1515113553   -1.2005177592   -1.8177731415
H        0.9885535190    0.9663123508   -3.5797827903
H       -0.5860211660    0.1438957064   -3.6319214787
H        0.8919144543   -0.8118016687   -3.6703091628
H        1.8046034850   -2.0450503475    0.4083634182
28   

C       -3.7681032444    4.4414630113    1.7714327018
C       -3.6540755045    3.5327407711    2.8216968044
C       -3.1124903600    4.1854535673    0.5673384859
C       -2.8985832350    2.3670666608    2.6599339283
C       -2.3430368022    3.0256129350    0.4119481892
C       -2.2323895424    2.0782602958    1.4507653261
C       -0.6758792316    0.2143017146    0.4516183265
C        0.1553389869   -0.8989408892    0.8495013503
C       -0.6348871279    0.4707834717   -1.0192342357
C       -1.4418727712    0.8525603615    1.3820495918
C        1.6050055758   -0.5564263229   -1.0865974969
C        0.5102352842    0.1858202248   -3.2091457743
N        1.1583375903   -1.3444367696    0.0357121776
N        0.4761394020    0.0629570446   -1.7541043164
O        0.0406025929   -1.4544228030    1.9286467739
O       -1.6118073590    0.9071540603   -1.6079223599
H       -4.3575734090    5.3434685932    1.8915120222
H       -4.1507277571    3.7295508578    3.7651092352
H       -3.1924220330    4.8905557831   -0.2521440206
H       -2.8309654938    1.6823688287    3.4979703177
H       -1.8284588862    2.9134772179   -0.5288679434
H       -1.4272495696    0.3590892437    2.3485404137
H        2.3034618889    0.2154780148   -0.7455199711
H        2.1327902123   -1.2108804578   -1.7885203263
H        1.1167966496    1.0497669334   -3.4980483622
H       -0.4922236591    0.3090686409   -3.6312000214
H        0.9375984681   -0.7170086497   -3.6566955529
H        1.6814603701   -2.1367597360    0.3881239201
28   

C       -3.8324108680    4.4483122048    1.8159427816
C       -3.5687593595    3.6176447674    2.9023576508
C       -3.2834337043    4.1438151973    0.5712064163
C       -2.7717631305    2.4806283328    2.7369131194
C       -2.4725076043    3.0132741576    0.4100740272
C       -2.2101927369    2.1404493356    1.4873272445
C       -0.6975305456    0.2311095879    0.4826879803
C        0.0871237185   -0.9150370819    0.8802980337
C       -0.5959032775    0.5240289068   -0.9781492033
C       -1.3785390157    0.9417304749    1.4277949484
C        1.6185525685   -0.5620102903   -0.9891600212
C        0.6442236169    0.2952330419   -3.1230270586
N        1.1027704833   -1.3709952037    0.0882522102
N        0.5376874565    0.1161780489   -1.6777556999
O       -0.0713457400   -1.4829767026    1.9473400999
O       -1.5591317305    0.9343936210   -1.6052517570
H       -4.4552101903    5.3273063589    1.9385229580
H       -3.9820930718    3.8523061850    3.8768080136
H       -3.4796448507    4.7884988007   -0.2779728433
H       -2.5904701149    1.8580454867    3.6059681006
H       -2.0542338048    2.8736816712   -0.5715509332
H       -1.2978970112    0.4943604295    2.4132905633
H        2.3301721748    0.1727962890   -0.5975575091
H        2.1472851839   -1.2122882474   -1.6945180171
H        1.6260290823    0.7062163078   -3.3780762363
H       -0.1080135101    0.9932897920   -3.5041057523
H        0.5128545856   -0.6645618144   -3.6324045628
H        1.5895141366   -2.1875563553    0.4374687277
28   

C       -3.8695067270    4.3953128734    1.8276228596
C       -3.1964744910    3.8421202764    2.9140268840
C       -3.7282766772    3.8159878649    0.5679552918
C       -2.3705304374    2.7281866541    2.7327202740
C       -2.9087290402    2.6944451768    0.3901370989
C       -2.1802111503    2.1379666805    1.4640320951
C       -0.7076732070    0.2076594637    0.4350667388
C       -0.0619502452   -1.0277086913    0.8281724286
C       -0.5410974475    0.5520283975   -1.0081595666
C       -1.3050384471    0.9713541738    1.3974625175
C        1.3105846128   -1.0684025743   -1.1907626293
C        0.5027924326    0.1351746521   -3.2129870653
N        0.7740822023   -1.6987148272   -0.0155520951
N        0.3350022225   -0.1887795842   -1.7994506371
O       -0.2203993231   -1.5265980506    1.9293629431
O       -1.0204631637    1.5541955991   -1.5070868673
H       -4.5085215937    5.2606795764    1.9626288131
H       -3.3132904887    4.2750930928    3.9010849596
H       -4.2674590321    4.2247242942   -0.2790464138
H       -1.8636418914    2.3275652909    3.6034343728
H       -2.9233825528    2.2604700604   -0.5952694772
H       -1.0769497418    0.6248313317    2.4002805980
H        2.2051014604   -0.4942498854   -0.9238555739
H        1.6006602139   -1.8438912389   -1.9073320010
H        1.2167880747    0.9575143422   -3.3273464586
H       -0.4512843545    0.4315266277   -3.6609534547
H        0.8701950507   -0.7347764440   -3.7660453828
H        1.1665216514   -2.5511078062    0.3652187615
28   

C       -3.9617396337    4.2902753233    1.7257284145
C       -3.2456031380    3.8404241668    2.8336152876
C       -3.7645000537    3.6812815410    0.4863769393
C       -2.3261217175    2.7955998673    2.6957945709
C       -2.8506075276    2.6287139015    0.3521556369
C       -2.0922747126    2.1753871305    1.4509623492
C       -0.5941193530    0.2612937064    0.4442298619
C       -0.0043420922   -0.9956523325    0.8466971976
C       -0.3536808879    0.6293516613   -0.9810754992
C       -1.1377057581    1.0732784636    1.4022842037
C        1.2798213111   -1.2115466144   -1.2330463276
C        0.6447918803    0.1811206182   -3.1935985882
N        0.7527720019   -1.7451924748   -0.0053999350
N        0.4302047416   -0.1826697909   -1.7966095675
O       -0.1542016373   -1.4545386667    1.9662685799
O       -0.7027517014    1.7087658216   -1.4309719069
H       -4.6737891581    5.1013498759    1.8284473321
H       -3.4024209230    4.2993216246    3.8032605318
H       -4.3284813533    4.0154564238   -0.3769277342
H       -1.7877485437    2.4687232986    3.5782988128
H       -2.7879750571    2.1610238972   -0.6186580326
H       -0.8717850715    0.7707686623    2.4101434621
H        2.2764057355   -0.7952313362   -1.0478680118
H        1.3785583769   -2.0295125789   -1.9543236999
H        1.4076551793    0.9634564989   -3.2649891461
H       -0.2828395543    0.5489245106   -3.6442042299
H        0.9726634785   -0.6876490041   -3.7729400391
H        1.1025361415   -2.6067245746    0.3960988921
28   

C       -4.0355847601    4.2356476761    1.7329498048
C       -3.2617939833    3.8703117775    2.8342568858
C       -3.8271923446    3.6059476383    0.5050364610
C       -2.2770761738    2.8855802922    2.7026169142
C       -2.8484713268    2.6126970026    0.3776134980
C       -2.0423574250    2.2416202414    1.4715588177
C       -0.5770280419    0.3297687022    0.4469267067
C       -0.0385381493   -0.9467185383    0.8470729059
C       -0.2813660145    0.7185872075   -0.9620420450
C       -1.0286584283    1.1963826025    1.4095529631
C        1.1726754467   -1.2683324757   -1.2721863019
C        0.7243380906    0.2754825946   -3.1704880732
N        0.6573547943   -1.7436092912   -0.0142579309
N        0.4546990315   -0.1217291611   -1.7923425298
O       -0.1769757174   -1.3796122370    1.9782269133
O       -0.5722238733    1.8284690658   -1.3818924820
H       -4.7982902389    4.9998053312    1.8316319412
H       -3.4251464773    4.3476864544    3.7938243931
H       -4.4293129031    3.8801492661   -0.3535986894
H       -1.6943503046    2.6197138782    3.5773442295
H       -2.7522471811    2.1278566641   -0.5837157509
H       -0.7005616571    0.9337773298    2.4103861549
H        2.2276571283   -1.0004772138   -1.1461235431
H        1.1115507617   -2.0837943274   -2.0004326455
H        1.5534885167    0.9900024843   -3.2000735356
H       -0.1597110994    0.7393050318   -3.6201931084
H        0.9857471144   -0.5958126096   -3.7791834292
H        0.9824066241   -2.6093586667    0.3989536997
28   

C       -4.0939657460    4.1690099601    1.7688754803
C       -3.2622689921    3.8822269297    2.8521039616
C       -3.8773799763    3.5335251096    0.5447364914
C       -2.2138036263    2.9672192490    2.7075407769
C       -2.8362055404    2.6079303450    0.4055496690
C       -1.9805131175    2.3127023388    1.4830551351
C       -0.5511876252    0.4046177143    0.4365775974
C       -0.0627135185   -0.8824124706    0.8573877979
C       -0.1977732626    0.7804821995   -0.9624482624
C       -0.9062021502    1.3337567770    1.3879375061
C        1.1006943018   -1.3171563064   -1.2757927847
C        0.8501109143    0.3085704511   -3.1436902731
N        0.5907013326   -1.7273117372    0.0083272763
N        0.5162337427   -0.0897431174   -1.7800880589
O       -0.1971394281   -1.2766123961    2.0029025775
O       -0.4581904979    1.8974761699   -1.3859461893
H       -4.9057518266    4.8792751266    1.8780515566
H       -3.4307445159    4.3658894633    3.8075892821
H       -4.5186010318    3.7531194272   -0.3011843284
H       -1.5862249940    2.7581072187    3.5664416115
H       -2.7114707656    2.1211202007   -0.5528834557
H       -0.5043565694    1.1212286489    2.3736819668
H        2.1852823278   -1.1835594377   -1.1962103385
H        0.9072015443   -2.1194998824   -1.9954022273
H        1.7150086005    0.9798741370   -3.1379186496
H        0.0055403125    0.8211279446   -3.6159025542
H        1.0872099795   -0.5679565623   -3.7549081721
H        0.8970694998   -2.5871198579    0.4475384828
28   

C       -4.1589859157    4.1026203198    1.8559847868
C       -3.2564872530    3.8831658644    2.8986016354
C       -3.9635258961    3.4690660781    0.6266674248
C       -2.1597246548    3.0348216940    2.7096722519
C       -2.8746440401    2.6084384416    0.4444853780
C       -1.9552712106    2.3779487411    1.4824790095
C       -0.5755508761    0.4715813806    0.3902398747
C       -0.1497743136   -0.8235109314    0.8463255384
C       -0.1540982633    0.8131910850   -0.9990714067
C       -0.8344180784    1.4648461545    1.3182076623
C        1.0433261731   -1.3528564584   -1.2512408338
C        0.9775154834    0.2873819731   -3.1248284397
N        0.4846470309   -1.7132175463    0.0286476607
N        0.5672821330   -0.0871896912   -1.7755075094
O       -0.3051211760   -1.1760843838    2.0024605446
O       -0.4003393619    1.9225696897   -1.4515766609
H       -5.0078117278    4.7615356780    1.9999359035
H       -3.4078248341    4.3669686195    3.8568417873
H       -4.6557048744    3.6422525682   -0.1893398374
H       -1.4762514565    2.8743814213    3.5356934795
H       -2.7455994485    2.1268661791   -0.5175363269
H       -0.3446664309    1.3034556893    2.2733506144
H        2.1336707610   -1.3042342890   -1.1550338200
H        0.7987874303   -2.1431731045   -1.9686335998
H        1.8683130610    0.9225402168   -3.0839007086
H        0.1768732391    0.8303504855   -3.6378707902
H        1.2055675502   -0.6024072996   -3.7201357893
H        0.7603950646   -2.5661858053    0.5003827557
28   

C       -4.1905538095    4.0047034483    1.9653319694
C       -3.1999021665    3.8650407734    2.9403962982
C       -4.0383569398    3.3751419597    0.7273335554
C       -2.0587670405    3.0988835697    2.6762924060
C       -2.9042070564    2.5957971878    0.4712397796
C       -1.9011346043    2.4442260330    1.4419606516
C       -0.5181760663    0.5828847507    0.2702367871
C       -0.1633922618   -0.7171440298    0.7688079384
C        0.0133261744    0.8878462331   -1.0885083576
C       -0.7377236501    1.6154604011    1.1802476729
C        0.9733822762   -1.3970618161   -1.3244802091
C        1.2555908902    0.2941633635   -3.1323631844
N        0.4429086580   -1.6610422930   -0.0089227889
N        0.7119144351   -0.0614304005   -1.8257206563
O       -0.3392074306   -1.0204406265    1.9358245007
O       -0.1416292536    2.0103083014   -1.5494794630
H       -5.0736272167    4.6001355096    2.1679818253
H       -3.3171331313    4.3467574146    3.9044346630
H       -4.7981525077    3.4901501854   -0.0371800103
H       -1.3054020941    2.9974713376    3.4491422501
H       -2.7947870260    2.1184203592   -0.4963459764
H       -0.1500251970    1.5138224324    2.0869535970
H        2.0582327102   -1.5471657347   -1.2923606954
H        0.5487105791   -2.1244651847   -2.0240459564
H        2.1948114590    0.8435668658   -3.0119697181
H        0.5487344370    0.9154944743   -3.6922540278
H        1.4466798666   -0.6039844983   -3.7282151062
H        0.6996679819   -2.4964969272    0.5031914870
28   

C       -4.2204061267    3.2361225323    2.4835941162
C       -3.0646647201    3.3601004302    3.2585935123
C       -4.1708184994    2.5451290049    1.2701430764
C       -1.8614248056    2.7967608442    2.8185557595
C       -2.9696378468    1.9696905579    0.8390472309
C       -1.8000304753    2.0868046469    1.6072385305
C       -0.2945359970    0.4932011980    0.2095163405
C        0.0358450536   -0.8332563574    0.6626288697
C        0.3055234472    0.8056354534   -1.1339461989
C       -0.5629857322    1.4765270594    1.1682981049
C        0.3135082138   -1.5967368697   -1.6481984666
C        1.4587102230    0.0174933957   -3.1866729494
N        0.3927889181   -1.8106217304   -0.2240810926
N        0.6918769582   -0.2348189341   -1.9719133267
O        0.0672661536   -1.1211121997    1.8461824332
O        0.4891172359    1.9688597649   -1.4610169370
H       -5.1522321072    3.6744651688    2.8228600537
H       -3.1002796600    3.8896600565    4.2038942983
H       -5.0635342216    2.4541089944    0.6619938350
H       -0.9766341668    2.8982704870    3.4367527403
H       -2.9449331663    1.4379822907   -0.1051853883
H        0.2234642750    1.5661841064    1.9102823445
H        0.9900423018   -2.2956628580   -2.1513866869
H       -0.7062451050   -1.7939546511   -1.9961669193
H        2.5263531136   -0.1229610793   -2.9901216100
H        1.3011550617    1.0359836709   -3.5558142917
H        1.1494772900   -0.6690427264   -3.9810743241
H        0.7182808709   -2.6770342486    0.1870274580
