16   

C        5.0202478888    1.6401471403    0.1071839327
C        5.3180363008    0.5088485818    0.8043048352
C        3.3530568224    0.2730439071   -0.2439690917
C        2.0817715281   -0.3296392602   -0.7324156873
C        0.4484412957   -2.1483167919   -0.3783323737
N        3.8079575174    1.4804326344   -0.5366910435
N        4.2730225983   -0.3802507778    0.5944221187
N        1.6820491508   -1.4600941398   -0.0278889350
O        1.4027938616    0.0992485763   -1.6584587739
H        5.6395106776    2.5287043228    0.0586345892
H        6.2145055735    0.3527220806    1.3934299625
H        0.2815675765   -2.9939366350    0.2957772855
H        0.5047718113   -2.5284593989   -1.4038526149
H       -0.4041590480   -1.4653029275   -0.2981593315
H        4.2229206642   -1.3464931547    0.9007263712
H        2.1569607747   -1.6884168326    0.8341393337
16   

C        4.9861859162    1.6555187362    0.1830407995
C        5.3487593983    0.4765543860    0.7620564788
C        3.3945584653    0.2445907742   -0.3003654320
C        2.1386443816   -0.3764598304   -0.8111455777
C        0.4182596440   -2.0829143390   -0.3433886851
N        3.7759467857    1.4996846652   -0.4669464992
N        4.3494493226   -0.4407354774    0.4674564376
N        1.6634747682   -1.4061600230   -0.0130035088
O        1.5204513426   -0.0155326705   -1.8059908764
H        5.5583278642    2.5755766490    0.2222543121
H        6.2575177027    0.3089157019    1.3287943686
H        0.1944274661   -2.8501965200    0.4039809882
H        0.4978562532   -2.5663838533   -1.3227989679
H       -0.4097016824   -1.3661425855   -0.3662916153
H        4.3446150704   -1.4356619859    0.6721130218
H        2.0850578288   -1.5385371074    0.8971060378
16   

C        4.9502140103    1.6578513090    0.2657431712
C        5.3902214858    0.4535339649    0.7289000086
C        3.4457440049    0.2042939721   -0.3405223938
C        2.2076256887   -0.4436321883   -0.8725694117
C        0.3995506373   -2.0286111902   -0.3282869435
N        3.7409106592    1.4916661625   -0.3845594771
N        4.4434863559   -0.4912298507    0.3570242602
N        1.6507981480   -1.3610274534   -0.0028496023
O        1.6643691368   -0.1681112956   -1.9359987496
H        5.4670407260    2.6030787781    0.3875660239
H        6.3143511898    0.2887271282    1.2711022175
H        0.1247691469   -2.7264918972    0.4685094998
H        0.5017451942   -2.5925836249   -1.2614657581
H       -0.4046849390   -1.2938314166   -0.4422265276
H        4.4875829932   -1.4991745396    0.4794184004
H        2.0270096518   -1.4126327813    0.9358825748
16   

C        4.8545275044    1.6507164542    0.3420260761
C        5.3947579198    0.4463456838    0.6846913169
C        3.4357236997    0.1489168161   -0.3386515308
C        2.2185095525   -0.5440366870   -0.8785176946
C        0.3433426858   -2.0213268160   -0.2751248207
N        3.6334666034    1.4534098987   -0.2780170278
N        4.5012559171   -0.5299006448    0.2651140307
N        1.5827692643   -1.3330718633    0.0515649966
O        1.7759563413   -0.4091510815   -2.0132885013
H        5.3097509946    2.6170598499    0.5274200254
H        6.3487846362    0.3031588950    1.1791519827
H        0.0234668839   -2.6433906934    0.5664100503
H        0.4858515489   -2.6682435770   -1.1472107317
H       -0.4469959378   -1.2956283647   -0.4947988538
H        4.6096910550   -1.5397576884    0.3090077645
H        1.9042678286   -1.2817791308    1.0111226121
16   

C        4.7886434309    1.6498544800    0.4711232737
C        5.4391555666    0.4656962458    0.6593056888
C        3.4417168515    0.1098057568   -0.2591196885
C        2.2624759378   -0.6234205979   -0.8437305193
C        0.3214996697   -2.0322499182   -0.2965690045
N        3.5462324206    1.4151692403   -0.0926296821
N        4.5935749934   -0.5355404114    0.2010105163
N        1.5021653305   -1.2756062150    0.0902469727
O        2.0410963700   -0.7342337742   -2.0440219002
H        5.1838450020    2.6278515075    0.7216459345
H        6.4335396951    0.3528756732    1.0759148123
H       -0.0944234275   -2.5524519917    0.5717000900
H        0.5779453344   -2.7793207876   -1.0550785388
H       -0.4425791156   -1.3601128727   -0.7013910473
H        4.7767102076   -1.5333236800    0.1315582407
H        1.6964896034   -1.0839257802    1.0666484960
16   

C        4.7727172022    1.6642556250    0.5605656653
C        5.5259013056    0.5273149171    0.5928194270
C        3.4829265686    0.0754595236   -0.1677803410
C        2.3526936735   -0.6885071675   -0.8087449715
C        0.3262436007   -2.0130191690   -0.3508785346
N        3.5081998981    1.3739116539    0.0754409548
N        4.7216674816   -0.5012626278    0.1212273558
N        1.4330520626   -1.1717456771    0.0785593208
O        2.3981727691   -1.1126387659   -1.9582884643
H        5.1139063256    2.6491104334    0.8590002472
H        6.5595171999    0.4640415532    0.9131225140
H       -0.1486457622   -2.4821324016    0.5161859852
H        0.6799575023   -2.8074234283   -1.0164414361
H       -0.4209716172   -1.4115342169   -0.8791557331
H        4.9742925548   -1.4671036652   -0.0736060498
H        1.4716722202   -0.8080939861    1.0246602620
16   

C        4.7297626714    1.6354180958    0.6855153886
C        5.5691679168    0.5677627143    0.5579081083
C        3.5089765870    0.0044672064   -0.0735871949
C        2.4153475424   -0.7846518920   -0.7339572275
C        0.2976874503   -1.9829346462   -0.3348643022
N        3.4558559847    1.2816662283    0.2708790863
N        4.8104368385   -0.4824912439    0.0597739293
N        1.3902791884   -1.1263463176    0.1003718062
O        2.5765250133   -1.3747358841   -1.7973263452
H        5.0176149204    2.6175729774    1.0431689747
H        6.6279322638    0.5651043770    0.7900770142
H       -0.2638929132   -2.3457899950    0.5313393355
H        0.6799173093   -2.8520773848   -0.8803307321
H       -0.3819551686   -1.4236545551   -0.9863466361
H        5.1171028385   -1.4017376607   -0.2507334176
H        1.3513195676   -0.6429556851    0.9918582210
16   

C        4.6986893424    1.5780807740    0.7684725637
C        5.5951045010    0.5841144460    0.5051460041
C        3.5371066733   -0.0768055277   -0.0343336599
C        2.4655950417   -0.8932826960   -0.6819451928
C        0.2638439882   -1.9435649693   -0.3159715057
N        3.4245249438    1.1675542884    0.4095093683
N        4.8737375007   -0.4778922012   -0.0225231454
N        1.3677143191   -1.0938773080    0.1031564785
O        2.6726782512   -1.5929051738   -1.6686625069
H        4.9462084215    2.5490878557    1.1823372128
H        6.6652020542    0.6378363127    0.6691245312
H       -0.3542256167   -2.2100056373    0.5467692740
H        0.6361320738   -2.8699751381   -0.7656451212
H       -0.3586719885   -1.4175559504   -1.0473046888
H        5.2132412825   -1.3526822754   -0.4170791862
H        1.3001835542   -0.5138881496    0.9340179429
16   

C        4.6763924281    1.5234276699    0.8343515997
C        5.6090418228    0.6081803286    0.4423746636
C        3.5610353481   -0.1427786646   -0.0108016826
C        2.5035071606   -0.9922977241   -0.6243145789
C        0.2343890934   -1.9000182570   -0.2871974041
N        3.4060102789    1.0583554817    0.5317606062
N        4.9161666380   -0.4593535419   -0.1115536710
N        1.3555431158   -1.0620168944    0.1079048631
O        2.7267730222   -1.7706118860   -1.5467771426
H        4.8950974547    2.4773250419    1.3008861695
H        6.6829309073    0.7168902288    0.5415903751
H       -0.4231619452   -2.0766053446    0.5694044042
H        0.5852466392   -2.8714554147   -0.6509487324
H       -0.3406729724   -1.4096592870   -1.0795448682
H        5.2754531314   -1.2915856730   -0.5752579649
H        1.2843524988   -0.4070039393    0.8816275522
16   

C        4.6660900676    1.4856448065    0.8907274454
C        5.6129699016    0.6490007759    0.3761321529
C        3.5769968610   -0.1703082301   -0.0072538154
C        2.5293508529   -1.0505446598   -0.5840817702
C        0.2050848059   -1.8263282944   -0.2982715553
N        3.4014719723    0.9772487981    0.6364891848
N        4.9360388054   -0.4116287358   -0.2097358902
N        1.3415912743   -1.0011233169    0.0788877280
O        2.7597399594   -1.8855309052   -1.4538914573
H        4.8702448591    2.4138754677    1.4123769765
H        6.6849442833    0.8038298727    0.4187988722
H       -0.4829541557   -1.9268586372    0.5466265738
H        0.5334416636   -2.8300331653   -0.5880783816
H       -0.3289884940   -1.3702832621   -1.1382722493
H        5.3025841197   -1.2027313673   -0.7359142399
H        1.2753973492   -0.2944796546    0.8071695106
16   

C        4.6710269367    1.4244593119    0.8135021690
C        5.6051639474    0.6301315148    0.2153111094
C        3.5719331028   -0.2383075699   -0.0590719385
C        2.5224963279   -1.1632207415   -0.5525045880
C        0.1494500009   -1.7944140369   -0.2922660369
N        3.4075611273    0.8824392189    0.6328224804
N        4.9213793139   -0.4360196012   -0.3521577844
N        1.3064237372   -0.9701807502    0.0213162391
O        2.7491972654   -2.0807332241   -1.3359333237
H        4.8830186710    2.3444210406    1.3465515971
H        6.6730577010    0.8147303218    0.1937713470
H       -0.4982287637   -1.8808906029    0.5854803145
H        0.4554355854   -2.8049526535   -0.5830411485
H       -0.4199389301   -1.3478311875   -1.1137275006
H        5.2765851133   -1.2160514163   -0.9022928757
H        1.2564592649   -0.1981438210    0.6820899030
16   

C        4.6952778677    1.4614793242    0.8046232827
C        5.6166132815    0.7359333454    0.1074236734
C        3.5961947305   -0.1768895304   -0.1130692496
C        2.5577950162   -1.1330819576   -0.5670933840
C        0.1465699091   -1.6661181559   -0.4126902687
N        3.4404956645    0.8883192009    0.6633734561
N        4.9330740731   -0.3158701170   -0.4864279744
N        1.3119505624   -0.8476541869   -0.1107331554
O        2.8009806180   -2.0931339151   -1.2924757616
H        4.9106426098    2.3528741294    1.3829359204
H        6.6762384002    0.9544383808    0.0411572353
H       -0.4049487158   -1.8854659088    0.5067407120
H        0.4359026583   -2.6212953554   -0.8634252752
H       -0.5121275766   -1.1403780828   -1.1110052739
H        5.2829853709   -1.0639532874   -1.0824890498
H        1.2562558378   -0.0387153243    0.5042486025
16   

C        4.6689113893    1.4313237825    0.8024181786
C        5.5721104524    0.7449482833    0.0444468053
C        3.5596424431   -0.1961683269   -0.1222476130
C        2.5285891396   -1.1854084028   -0.5204617882
C        0.0965376488   -1.6102868353   -0.5654099749
N        3.4205677424    0.8363842567    0.7001405841
N        4.8828188973   -0.3021354236   -0.5511653776
N        1.2586465261   -0.8040161030   -0.2252516832
O        2.7861542764   -2.2109259290   -1.1441266273
H        4.8933413604    2.3079815748    1.3995061613
H        6.6244544153    0.9838988728   -0.0575948225
H       -0.1533256432   -2.2799827606    0.2637554053
H        0.2855119265   -2.2119612764   -1.4607548483
H       -0.7611567726   -0.9630922283   -0.7725432228
H        5.2261204311   -1.0407270963   -1.1626357972
H        1.1752384162    0.0849382682    0.2625615431
16   

C        4.6549739887    1.5239315109    0.8331959357
C        5.5412396962    0.8990577162    0.0052896342
C        3.5629827459   -0.1221022534   -0.0793840855
C        2.5629940109   -1.1690732804   -0.4095087915
C        0.1453280161   -1.6182895448   -0.6065862178
N        3.4304608704    0.8752787027    0.7865086100
N        4.8641929554   -0.1613057081   -0.5809263257
N        1.2717681472   -0.7578005937   -0.2817001897
O        2.8608197463   -2.2400099358   -0.9303202229
H        4.8763504535    2.3920826459    1.4437003471
H        6.5756282767    1.1852872953   -0.1464814637
H       -0.0648917378   -2.2945849748    0.2284255483
H        0.3566297574   -2.2128656362   -1.5016060700
H       -0.7444860917   -1.0132409948   -0.8053420858
H        5.2101268506   -0.8804801568   -1.2135244134
H        1.1440872077    0.1639651191    0.1283813125
16   

C        4.6859598061    1.4894017418    0.8837847317
C        5.5132255804    0.9424518073   -0.0530373291
C        3.5535548279   -0.1174133853   -0.0491424296
C        2.5590459430   -1.1873761687   -0.3365048661
C        0.1574083090   -1.6317646023   -0.6845836108
N        3.4760627884    0.8128176236    0.8941469796
N        4.8115596179   -0.0944853523   -0.6521761827
N        1.2668597236   -0.7527567114   -0.3502165672
O        2.8736454734   -2.2851893563   -0.7863838466
H        4.9399108516    2.3202010886    1.5323893052
H        6.5267312968    1.2622689999   -0.2661628550
H       -0.0980748178   -2.2587899401    0.1759571363
H        0.4148634461   -2.2767737506   -1.5312159160
H       -0.7197791619   -1.0403325313   -0.9639995352
H        5.1272357174   -0.7743793897   -1.3412418343
H        1.1136395202    0.1891984403   -0.0009302163
16   

C        4.7337529133    1.4549381618    0.9497595976
C        5.4795380272    0.9874714059   -0.0924253318
C        3.5484611130   -0.1172586434    0.0247179265
C        2.5552748425   -1.2076892152   -0.2175901739
C        0.1852249766   -1.6695572363   -0.7218512675
N        3.5443931865    0.7478720267    1.0295240666
N        4.7449799649   -0.0285484310   -0.6880689731
N        1.2740826509   -0.7672921664   -0.3805686888
O        2.8848983577   -2.3359100947   -0.5703395601
H        5.0316966913    2.2497725467    1.6242017359
H        6.4630638345    1.3438640695   -0.3762298821
H       -0.1248742042   -2.2358457407    0.1625783117
H        0.4931455795   -2.3710594739   -1.5042323095
H       -0.6717739243   -1.1005632463   -1.0948406163
H        5.0165266072   -0.6658721990   -1.4339079673
H        1.0964248483    0.1978658538   -0.1194436033
16   

C        4.7946655955    1.4075726343    1.0216901076
C        5.4382779987    1.0242441151   -0.1183071488
C        3.5459282549   -0.1260865222    0.1188487462
C        2.5397718985   -1.2212609754   -0.0886865250
C        0.2151521136   -1.6959532245   -0.7598301023
N        3.6298413600    0.6723063237    1.1715854794
N        4.6625867129    0.0330119978   -0.7036326188
N        1.2903313059   -0.7783933421   -0.4148611470
O        2.8647610714   -2.3843387380   -0.3044732455
H        5.1474557266    2.1629256031    1.7147876854
H        6.3835606253    1.4183860782   -0.4732496867
H       -0.1639254258   -2.1871849477    0.1424611540
H        0.5672822706   -2.4600494230   -1.4606892381
H       -0.6060343509   -1.1513752259   -1.2356798230
H        4.8733939426   -0.5513110671   -1.5096101332
H        1.1072228399    0.2091027214   -0.2690712349
16   

C        4.8728793378    1.3131095309    1.0789613882
C        5.3811151186    1.0324570488   -0.1554990606
C        3.5580667180   -0.1884563501    0.2217104678
C        2.5165119499   -1.2627034616    0.0398764768
C        0.2412213985   -1.7171028105   -0.7889939295
N        3.7463317865    0.5402931567    1.3076440882
N        4.5591605915    0.0656706682   -0.7184183850
N        1.3287912553   -0.8083404739   -0.4595645859
O        2.7828741822   -2.4595384173    0.0333021434
H        5.2921023804    2.0252745844    1.7807342961
H        6.2690816181    1.4784404545   -0.5885969216
H       -0.2266485269   -2.0922106747    0.1272939996
H        0.6103882921   -2.5658964166   -1.3741696882
H       -0.5163448313   -1.1977836708   -1.3837957311
H        4.6805632330   -0.4415252291   -1.5917122180
H        1.1843757810    0.1956437672   -0.4606317321
16   

C        4.9088919329    1.2293853667    1.0922195681
C        5.2709048300    1.0536169519   -0.2111846328
C        3.5488199585   -0.2649533940    0.2944957795
C        2.4515522293   -1.2848950335    0.1341041782
C        0.2195615511   -1.6764570289   -0.8232267843
N        3.8334757394    0.4108532980    1.3921617092
N        4.4110108433    0.1022553665   -0.7431709721
N        1.3734538840   -0.8261212921   -0.5750923971
O        2.5324677388   -2.4526362070    0.4971762571
H        5.3906479838    1.9049517584    1.7900341614
H        6.0879667688    1.5606895842   -0.7115630588
H       -0.2840355352   -1.9151716351    0.1195723235
H        0.5287446073   -2.6080880440   -1.3087019439
H       -0.4911515656   -1.1657432245   -1.4801526002
H        4.4283265099   -0.3159996367   -1.6698297114
H        1.3389359010    0.1657172260   -0.7822828089
16   

C        5.0027979471    1.1251511488    1.1192752269
C        5.2175207021    1.0620306103   -0.2259893357
C        3.5691913204   -0.3222545370    0.3569981397
C        2.4314409051   -1.2928350116    0.2278915038
C        0.2355055927   -1.6485401612   -0.8276881214
N        3.9686570098    0.2737745894    1.4658413354
N        4.3069829977    0.1468641805   -0.7367205328
N        1.4489899161   -0.8691132509   -0.6365441346
O        2.3280828693   -2.3443312863    0.8487221571
H        5.5557932168    1.7478649352    1.8134235797
H        5.9710857267    1.6208067943   -0.7691925960
H       -0.3311121825   -1.7038634222    0.1079491000
H        0.4830772548   -2.6638195945   -1.1551865030
H       -0.3952068508   -1.1843734866   -1.5920290003
H        4.2226215961   -0.1866511446   -1.6933537745
H        1.5152203750    0.0751384259   -0.9981293659
16   

C        5.1143282963    1.0741161422    1.1294263684
C        5.2033120684    1.1018767160   -0.2306443000
C        3.5879986625   -0.3018244100    0.4075761471
C        2.4358386728   -1.2509323584    0.3205404692
C        0.3008205480   -1.6882435562   -0.8319930104
N        4.1040013460    0.2101701810    1.5112074467
N        4.2351448010    0.2330377691   -0.7153529504
N        1.5228885528   -0.9171695976   -0.6611770699
O        2.2413631265   -2.2006269321    1.0703225758
H        5.7385563399    1.6418844895    1.8101499630
H        5.9128942603    1.6896437205   -0.8017690809
H       -0.3050270283   -1.6469390043    0.0795621644
H        0.5395644289   -2.7337151864   -1.0540578601
H       -0.2881601786   -1.2848946179   -1.6613517025
H        4.0700369399   -0.0402907596   -1.6801900830
H        1.6295686604   -0.0220937111   -1.1225646634
16   

C        5.1720357870    1.0055680080    1.1436782840
C        5.1603088314    1.1350263862   -0.2127061425
C        3.5382372493   -0.2581225233    0.4426320914
C        2.3686705432   -1.1811280171    0.3785961021
C        0.3147058563   -1.7215090183   -0.8782731481
N        4.1632910409    0.1452717391    1.5358146059
N        4.1267148287    0.3374672814   -0.6843134046
N        1.5305477178   -0.9419754838   -0.7000397653
O        2.1020159967   -2.0492028568    1.2016936129
H        5.8664107433    1.4984175792    1.8147471354
H        5.8475957692    1.7416485910   -0.7913099441
H       -0.3404736197   -1.6086713659   -0.0077482063
H        0.5591423773   -2.7814773146   -1.0049260047
H       -0.2255727816   -1.3824569282   -1.7673889401
H        3.8950498925    0.1354186053   -1.6524529526
H        1.6723614982   -0.0962035245   -1.2368022942
16   

C        5.0834911124    1.3611886434   -0.2698330977
C        5.2529342911    0.4072236612    0.6871300772
C        3.2538098348    0.1682860226   -0.2934775001
C        1.8966973811   -0.3547988696   -0.6143295699
C        0.3674707443   -2.2780470317   -0.3637993864
N        3.8459737994    1.2043607713   -0.8645657948
N        4.0992647499   -0.3645241587    0.6950872360
N        1.6456277818   -1.6279538838   -0.1148627204
O        1.0445632273    0.2366355698   -1.2674758470
H        5.8044398124    2.1298518361   -0.5243256724
H        6.1276232396    0.3004181256    1.3184877494
H        0.3575033705   -3.2774916173    0.0815692554
H        0.1933168200   -2.3747240632   -1.4409146398
H       -0.4470810182   -1.6939273647    0.0774410495
H        3.8648491101   -1.1051549911    1.3481331811
H        2.4153101978   -2.1619297177    0.2635769739
16   

C        5.0683571965    1.6191907234    0.0278796337
C        5.2975946288    0.5658741506    0.8594307243
C        3.3389142602    0.3012334834   -0.1957897220
C        2.0515908334   -0.2837419663   -0.6657058408
C        0.4727365425   -2.1720701594   -0.4434735095
N        3.8600386838    1.4424515585   -0.6179987562
N        4.2104456978   -0.2886077292    0.7374377219
N        1.7083713091   -1.4962943763   -0.0755069432
O        1.3159364058    0.2185217154   -1.5080834372
H        5.7322379944    2.4648087889   -0.1119957578
H        6.1743330888    0.4398790276    1.4843480768
H        0.3892960874   -3.1252129974    0.0874379375
H        0.4557406774   -2.3731761546   -1.5200038873
H       -0.3912371448   -1.5510499995   -0.1835465103
H        4.0844727109   -1.1788048227    1.2060889229
H        2.2945979737   -1.8828253259    0.6487861641
