31

C     -1.38120    0.66920   -4.60193
C     -1.92514    1.01704   -3.36107
C     -1.01397   -0.65199   -4.87043
C     -1.75550   -1.28228   -2.63206
C     -2.11121    0.04807   -2.36672
C     -1.21645   -1.60108   -3.87164
C     -1.87362   -0.21228    0.14464
C      0.12284   -0.42710    1.49124
C      0.10530    1.26209   -0.36088
C      0.57105   -1.86447    1.20353
C      1.09288    0.74220   -1.41404
C     -2.66190    0.41978   -1.00371
N     -0.60212    0.23133    0.40081
O     -2.37651   -1.11915    0.81432
F     -0.86579   -2.88798   -4.11667
S      1.33572   -2.11447   -0.45231
S      2.41604   -0.35303   -0.75833
H     -1.23644    1.43093   -5.36316
H     -2.19670    2.05120   -3.16305
H     -0.58262   -0.94898   -5.82120
H     -1.86964   -2.05771   -1.88108
H     -0.51657   -0.45014    2.37904
H      0.99796    0.18509    1.71243
H      0.64071    1.89639    0.35369
H     -0.62228    1.90154   -0.86342
H      1.26936   -2.17825    1.98463
H     -0.29043   -2.53616    1.20487
H      0.57947    0.20756   -2.21207
H      1.61744    1.59722   -1.85660
H     -2.70921    1.50817   -0.90167
H     -3.67905    0.03719   -0.88910
