31

C     -3.32307   -1.77889   -2.65442
C     -3.26108   -0.88043   -1.58886
C     -2.79452   -1.44379   -3.90588
C     -2.14761    0.72916   -3.00573
C     -2.66698    0.37954   -1.75377
C     -2.21875   -0.18815   -4.05033
C     -1.74046    0.67873    0.56193
C      0.40405    1.15883   -0.64636
C      0.33281   -0.08226    1.53989
C      1.15092    0.11170   -1.51306
C      0.18400   -1.60759    1.46557
C     -2.55428    1.31933   -0.56799
N     -0.37221    0.62404    0.46376
O     -2.32646    0.18605    1.53003
F     -1.69926    0.16591   -5.25664
S      0.35406   -1.53525   -1.59926
S      1.14658   -2.41166    0.12826
H     -3.77670   -2.75579   -2.51200
H     -3.65306   -1.15955   -0.61488
H     -2.82228   -2.12918   -4.74708
H     -1.69227    1.69934   -3.18608
H      1.14697    1.86416   -0.25127
H     -0.26126    1.73401   -1.28207
H     -0.07918    0.25538    2.49493
H      1.38827    0.20038    1.49702
H      1.21640    0.47892   -2.54250
H      2.16909   -0.04509   -1.15083
H      0.58045   -2.05533    2.38450
H     -0.86885   -1.87731    1.38222
H     -2.15343    2.28821   -0.87568
H     -3.54012    1.49564   -0.13303
