25

C      0.43047    1.96299   -3.59733
C      0.25541    0.76288   -2.89599
C      4.28493    0.53925    1.98397
C      6.22101    1.80535    1.18407
C      3.43461    1.52993    1.49575
C      5.36821    2.80004    0.70530
C      1.27174    2.93974   -3.07079
C      0.94010    0.59638   -1.69332
C      5.65914    0.69635    1.81296
C      3.98873    2.64428    0.86234
C      1.91113    2.64841   -1.86057
N      1.76677    1.52271   -1.18050
O      1.59165    3.79541    0.85655
O      3.64410    5.18983    0.26488
O      2.79179    3.61144   -1.38854
F      6.48355   -0.26776    2.28232
S      2.91369    3.93296    0.26410
H     -0.08910    2.13897   -4.53531
H     -0.39680   -0.02074   -3.26866
H      3.90110   -0.34219    2.48753
H      7.29883    1.88311    1.08469
H      2.35901    1.44524    1.59470
H      5.76565    3.68910    0.22692
H      1.43899    3.89480   -3.55686
H      0.83075   -0.31745   -1.11230
