23

C      1.76931   -1.58743   -0.07825
C      3.51543   -1.56348    1.61704
C      0.86107   -1.01764    0.82276
C      2.59792   -1.00226    2.50345
C      1.29105   -0.72643    2.13000
C      3.08907   -1.85696    0.31922
C     -3.27380   -1.39727    0.19015
C     -2.40567   -0.60455   -0.79274
C     -0.93966   -1.01024   -0.76186
O     -0.43105   -0.71334    0.54839
F      2.98601   -0.71386    3.76389
F      0.43305   -0.18339    3.01558
S      4.16871   -2.56670   -0.91011
H      1.45536   -1.82600   -1.08731
H      4.52714   -1.75088    1.96135
H     -3.23477   -2.47111   -0.02703
H     -2.93385   -1.24862    1.21851
H     -4.31989   -1.08121    0.12805
H     -2.47612    0.46831   -0.58105
H     -2.76392   -0.75002   -1.81931
H     -0.82844   -2.08490   -0.96058
H     -0.36272   -0.45313   -1.51129
H      5.22970   -2.76038   -0.10227
