14   
Generated by ForceBalance from scan.xyz: Frame 1 of 7
C        0.2109604222   -3.2829651962    0.8617188119
C        0.4456962008   -2.0803457347    0.2039342481
C        0.8966253430   -0.7827358902    0.8260923885
N       -0.4081803191   -4.1844451667    0.0075545044
N        0.0522690825   -4.1169729666   -1.1707910260
N        1.9602850515    0.2956749764   -1.0233563658
N        2.1388395262   -0.2102332219    0.3049101946
S        0.1396001206   -2.3255969271   -1.5093546552
H        0.1707075577   -3.4489118225    1.9326286581
H        0.1190247028   -0.0231278078    0.7080860498
H        1.0334002352   -0.9519342404    1.9003086913
H        2.5787470175    1.0965315276   -1.1315361099
H        2.2022216538   -0.3972743463   -1.7335814125
H        2.8811725197   -0.9103741447    0.3437247825
14   
Generated by ForceBalance from scan.xyz: Frame 2 of 7
C        0.2516847147   -3.2754308217    0.8357315804
C        0.4205633043   -2.0574977081    0.2022158199
C        0.8597884907   -0.7565468570    0.8285554428
N       -0.3085009198   -4.2373145422    0.0232912917
N       -0.0912916422   -4.0369460210   -1.2200414076
N        1.9852726096    0.2301204079   -1.0335726305
N        2.1173853254   -0.1982974706    0.3272612711
S        0.0457918025   -2.2912542235   -1.4729537600
H        0.3113579994   -3.4567108860    1.9034887276
H        0.0892123894    0.0057131378    0.6878013248
H        0.9756531283   -0.9168194306    1.9060018473
H        2.5766114020    1.0492444243   -1.1559557446
H        2.2904503613   -0.4866887807   -1.6936435617
H        2.8633286607   -0.8872439185    0.4327117107
14   
Generated by ForceBalance from scan.xyz: Frame 3 of 7
C        0.3099474728   -3.2674491444    0.8180060030
C        0.3991449446   -2.0362950780    0.2040015383
C        0.8259792081   -0.7300957171    0.8300418005
N       -0.1608044017   -4.2771551673    0.0146148845
N       -0.1976976696   -3.9859464236   -1.2321018066
N        2.0118681724    0.1849765033   -1.0296447243
N        2.1009998941   -0.1912290788    0.3500040073
S       -0.0344536826   -2.2576500288   -1.4457111883
H        0.4638536237   -3.4656308099    1.8732384619
H        0.0660750934    0.0364838648    0.6608172984
H        0.9167563156   -0.8779804053    1.9113275535
H        2.6034623828    1.0019790438   -1.1639707282
H        2.3424663649   -0.5541250391   -1.6519043819
H        2.8408325950   -0.8778066341    0.5031228169
14   
Generated by ForceBalance from scan.xyz: Frame 4 of 7
C        0.3393684969   -3.2545266633    0.8000770470
C        0.3822230284   -2.0132619664    0.2038779014
C        0.8028051079   -0.7069405932    0.8338091809
N       -0.0413474566   -4.2822789659   -0.0252796055
N       -0.3046143158   -3.9326563841   -1.2296705081
N        2.0336673226    0.1432293964   -1.0268995921
N        2.0896382204   -0.1803232700    0.3682987305
S       -0.0875716126   -2.2169704201   -1.4343022539
H        0.5694747864   -3.4689738804    1.8379906434
H        0.0506168119    0.0638895236    0.6510710698
H        0.8793523284   -0.8507774530    1.9166194081
H        2.6070674275    0.9709664458   -1.1739061851
H        2.4045242534   -0.6081333570   -1.6103098632
H        2.8254066938   -0.8604951801    0.5628388644
14   
Generated by ForceBalance from scan.xyz: Frame 5 of 7
C        0.3550974630   -3.2602961002    0.7884043443
C        0.3529223762   -2.0094879502    0.2049369115
C        0.7709909020   -0.7015097978    0.8314864484
N        0.0657815166   -4.2861216270   -0.0772765270
N       -0.4129866645   -3.9079553542   -1.2037396233
N        2.0401176357    0.0850957733   -1.0306342800
N        2.0702242721   -0.1938943687    0.3754230298
S       -0.1493541915   -2.2000166156   -1.4298008362
H        0.6595464745   -3.4862492234    1.8044020859
H        0.0297108808    0.0754121888    0.6317189664
H        0.8337656508   -0.8358190269    1.9164124100
H        2.6072069715    0.9144605923   -1.1921748410
H        2.4324016735   -0.6797107270   -1.5814864493
H        2.7974517282   -0.8732776463    0.6016843139
14   
Generated by ForceBalance from scan.xyz: Frame 6 of 7
C        0.3703826136   -3.2516536343    0.7779716780
C        0.3411408006   -1.9916350105    0.2104093161
C        0.7527702954   -0.6827451867    0.8350550117
N        0.1697910866   -4.2631332203   -0.1385463916
N       -0.5012968970   -3.8858887897   -1.1618922638
N        2.0493182034    0.0438795685   -1.0324491137
N        2.0590454821   -0.1847878887    0.3834478244
S       -0.1696584643   -2.1746251209   -1.4327100820
H        0.7220216879   -3.5052690354    1.7724288464
H        0.0161908424    0.0960450910    0.6254792605
H        0.8092290891   -0.8111857423    1.9210909432
H        2.5942575764    0.8841630342   -1.2128218617
H        2.4760400749   -0.7273679102   -1.5470727883
H        2.7830735181   -0.8557688569    0.6418918121
14   
Generated by ForceBalance from scan.xyz: Frame 7 of 7
C        0.3851025820   -3.2578022795    0.7879943750
C        0.3362444740   -1.9907808447    0.2176196544
C        0.7374031805   -0.6773536033    0.8346904616
N        0.2650470954   -4.2298975127   -0.1964100021
N       -0.5759229245   -3.8894026256   -1.0892246992
N        2.0553328874    0.0020158522   -1.0370762056
N        2.0499642809   -0.1879257496    0.3850793988
S       -0.1749028147   -2.1618248849   -1.4511287331
H        0.7757182835   -3.5303847019    1.7624219241
H        0.0045614369    0.1009153610    0.6105696138
H        0.7875682235   -0.7937235574    1.9225961131
H        2.5804324410    0.8512836161   -1.2335584774
H        2.5091277770   -0.7715565975   -1.5237759297
H        2.7699595119   -0.8541057012    0.6658536981
