20   
Generated by ForceBalance from scan.xyz: Frame 1 of 24
C        5.3454018455    1.3225129035    0.1666087484
C        4.0421208958    1.2639585742    0.6627983518
C        5.7325973226    0.2547815114   -0.6444095622
C        3.6757880208   -0.7075076223   -0.4216060899
C        1.4522771847   -1.8460980002   -0.5287221300
C        0.6599861677   -0.5690043850   -0.3383077298
C        3.5070874834   -3.0012910472   -1.2515979784
N        3.2083611665    0.2575341843    0.3898826061
N        4.9153760891   -0.7564774555   -0.9484753385
N        2.8499004398   -1.7908346544   -0.7276682817
O        0.8779534596   -2.9274524827   -0.5731713682
H        6.0173225474    2.1400113728    0.4046946090
H        3.6517112241    2.0437353648    1.3158473318
H        6.7339165197    0.2051998861   -1.0707357787
H        0.6841563536   -0.2594828733    0.7078888625
H       -0.3676652474   -0.7991810710   -0.6246534956
H        1.0468472737    0.2620199172   -0.9296726583
H        2.7562207117   -3.7848967087   -1.3060911601
H        4.3172292758   -3.3071963539   -0.5862099984
H        3.9280845647   -2.8027895207   -2.2390912358
20   
Generated by ForceBalance from scan.xyz: Frame 2 of 24
C        5.3536086400    1.3428859217    0.1732587041
C        4.0411331234    1.2919306905    0.6462252902
C        5.7455334830    0.2790220937   -0.6405484910
C        3.6770453137   -0.6659712812   -0.4626734796
C        1.4736309266   -1.8207184437   -0.4374725786
C        0.6382531382   -0.5599622371   -0.3547930327
C        3.4832935476   -2.9518855215   -1.3094723418
N        3.2026482669    0.2965934583    0.3493585278
N        4.9249302899   -0.7222644161   -0.9681530022
N        2.8397688328   -1.7290960236   -0.7984660629
O        0.9663383114   -2.9204374108   -0.2644957511
H        6.0287888181    2.1515798488    0.4312271205
H        3.6467828823    2.0696584655    1.2993568589
H        6.7540115189    0.2236727937   -1.0489322999
H        0.6185159632   -0.1937225132    0.6732760617
H       -0.3755803912   -0.8386188071   -0.6507670629
H        1.0160719798    0.2450724946   -0.9855313812
H        2.7053076824   -3.6928345848   -1.4745158429
H        4.2055881638   -3.3418871448   -0.5869579107
H        4.0084280851   -2.7267674343   -2.2380999179
20   
Generated by ForceBalance from scan.xyz: Frame 3 of 24
C        5.3733515088    1.3263122727    0.1921246950
C        4.0534968096    1.2934994992    0.6461877874
C        5.7572305755    0.2677068977   -0.6325627603
C        3.6711132765   -0.6413101937   -0.4967187328
C        1.4876767183   -1.7779338906   -0.3460867323
C        0.6004881887   -0.5514598232   -0.3645052669
C        3.4210271738   -2.9246756370   -1.3403239642
N        3.2011055466    0.3185907800    0.3225441132
N        4.9235742897   -0.7136686025   -0.9869767171
N        2.8079260725   -1.6723035520   -0.8632628393
O        1.0723059580   -2.8603499339    0.0368941516
H        6.0599597300    2.1177939135    0.4722683000
H        3.6644190181    2.0689824524    1.3050932963
H        6.7703220452    0.1999542444   -1.0274402470
H        0.5119314126   -0.1515752003    0.6475578055
H       -0.3889319344   -0.8808405170   -0.6937656100
H        0.9758949622    0.2394362727   -1.0129997316
H        2.6211918602   -3.6077971215   -1.6180681854
H        4.0314737858   -3.3917623152   -0.5612643618
H        4.0534780026   -2.7053473759   -2.1993648600
20   
Generated by ForceBalance from scan.xyz: Frame 4 of 24
C        5.3805343987    1.3515089614    0.1732230905
C        4.0626491004    1.3235846722    0.6348366021
C        5.7568494728    0.2913798002   -0.6528856178
C        3.6714358205   -0.6128199972   -0.5024677011
C        1.5330949854   -1.7492226252   -0.1888498037
C        0.5580812933   -0.6004590999   -0.3183354098
C        3.3911915660   -2.8980969813   -1.3149687816
N        3.2058919314    0.3509778571    0.3172207831
N        4.9192264180   -0.6893672442   -1.0017241763
N        2.7907524373   -1.6290420569   -0.8641701715
O        1.2614681190   -2.7701391305    0.4169277843
H        6.0710817764    2.1410989586    0.4489520734
H        3.6797007979    2.1018473287    1.2940354867
H        6.7674891226    0.2211978222   -1.0536126111
H        0.3814717928   -0.1670423931    0.6682138540
H       -0.3878548105   -1.0156373403   -0.6811912267
H        0.9089637239    0.1800801502   -0.9917090729
H        2.5847026083   -3.5791804835   -1.5829424374
H        3.9994548783   -3.3596875425   -0.5308775526
H        4.0199105539   -2.7006736635   -2.1818555520
20   
Generated by ForceBalance from scan.xyz: Frame 5 of 24
C        5.4586970590    1.3031550003    0.0656249596
C        4.1545930697    1.2604518240    0.5654081299
C        5.8118516909    0.2672129851   -0.8003851603
C        3.7345436227   -0.6453606679   -0.6132528746
C        1.6428993399   -1.7914460178   -0.1699586241
C        0.5414323901   -0.8005789925   -0.4468297562
C        3.4082629483   -2.9057785517   -1.4741935900
N        3.2898625051    0.2963584614    0.2455138811
N        4.9669097055   -0.7074057610   -1.1505690878
N        2.8366633311   -1.6414813836   -0.9760084601
O        1.5417300851   -2.7152076156    0.6110626004
H        6.1562873380    2.0860633176    0.3425604767
H        3.7905705921    2.0198192421    1.2565954731
H        6.8103598046    0.2112156284   -1.2326116898
H       -0.1219644874   -0.7340955597    0.4166697946
H       -0.0327979460   -1.1768069641   -1.3031689441
H        0.9389426487    0.1802097562   -0.7040531495
H        2.5859709874   -3.5773205533   -1.7229122464
H        4.0483802130   -3.3869797457   -0.7280339694
H        3.9964028288   -2.6981262054   -2.3671184670
20   
Generated by ForceBalance from scan.xyz: Frame 6 of 24
C        5.5501057393    1.3661371812    0.2239980946
C        4.2194292010    1.4086985433    0.6510278678
C        5.8926954106    0.2878929153   -0.5928599594
C        3.7640737578   -0.5092647892   -0.4941759156
C        1.6353651188   -1.5524623608   -0.0332902023
C        0.4820219264   -0.6902427517   -0.4654383977
C        3.3104887080   -2.7349553530   -1.3987999912
N        3.3214084712    0.4856466830    0.3065996345
N        5.0184136510   -0.6552810856   -0.9592370418
N        2.8220822346   -1.4465688519   -0.8817836692
O        1.6161210469   -2.3188992185    0.9037980938
H        6.2729419894    2.1197881382    0.5168346397
H        3.8607471036    2.2088876065    1.2976172900
H        6.9083636390    0.1682403123   -0.9686199480
H       -0.3245237062   -0.7401695591    0.2671524261
H        0.1228256754   -1.0419937046   -1.4397237728
H        0.8260527108    0.3386700361   -0.5916384125
H        2.4486498205   -3.3278237950   -1.7121718318
H        3.8740089195   -3.2926317624   -0.6433325600
H        3.9531400320   -2.5504104464   -2.2587827057
20   
Generated by ForceBalance from scan.xyz: Frame 7 of 24
C        5.6386031576    1.2937261986    0.2401925089
C        4.3003793223    1.3829662904    0.6393188371
C        5.9638509472    0.1996651815   -0.5616405167
C        3.8117266652   -0.5324716507   -0.4935859308
C        1.6694223526   -1.5355810589   -0.0135346225
C        0.4331885362   -0.8878042482   -0.5690536620
C        3.2464914280   -2.6970871558   -1.5066505554
N        3.3800817119    0.4890316801    0.2810972084
N        5.0690907838   -0.7236663277   -0.9323433988
N        2.8404045120   -1.4283582203   -0.8920010875
O        1.7374033510   -2.1224986463    1.0413473784
H        6.3780765050    2.0285238121    0.5393916190
H        3.9542908491    2.2028253336    1.2679723235
H        6.9817857782    0.0479538557   -0.9193102879
H       -0.4180866448   -1.0453364522    0.0943594294
H        0.2204605252   -1.2855675540   -1.5671973103
H        0.6348326756    0.1819234325   -0.6844126287
H        2.3513638623   -3.2056424244   -1.8749693999
H        3.7624470888   -3.3503996130   -0.7934972126
H        3.9112901377   -2.4924909072   -2.3453881575
20   
Generated by ForceBalance from scan.xyz: Frame 8 of 24
C        5.8498132032    1.4595381917    0.5111107967
C        4.5691755203    1.5308993136    1.0695555711
C        6.0798101382    0.3814669350   -0.3422990473
C        3.9684476885   -0.3951444776    0.0208200669
C        1.7079667639   -1.2869072026    0.3472213936
C        0.5358502236   -1.2992502138   -0.6213623692
C        3.1960004173   -2.2204872246   -1.4205346241
N        3.6225935348    0.6244021736    0.8285854260
N        5.1548961094   -0.5508373259   -0.5968806833
N        3.0097426707   -1.3695423082   -0.2401776338
O        1.5472915501   -1.2834209422    1.5494071892
H        6.6099841395    2.2059837953    0.7147563735
H        4.2864537332    2.3533022006    1.7260924308
H        7.0380052252    0.2540086378   -0.8448971747
H       -0.2841305356   -0.7492149933   -0.1570500126
H        0.1923326351   -2.3261390266   -0.7862040052
H        0.7841131951   -0.8587803397   -1.5898963524
H        2.4195646491   -2.9855870107   -1.4333747336
H        4.1674504727   -2.7102498198   -1.3565147324
H        3.1613560617   -1.6480708068   -2.3554174692
20   
Generated by ForceBalance from scan.xyz: Frame 9 of 24
C        5.9365050008    1.4405623437    0.5724795698
C        4.6336372113    1.5758323518    1.0639942278
C        6.1591974623    0.3451390874   -0.2597759844
C        3.9986250600   -0.3301963460    0.0029997510
C        1.7401360158   -1.2472947640    0.3251017897
C        0.5308812410   -1.4794298440   -0.5688883895
C        3.2259041143   -2.1152631722   -1.4894791957
N        3.6594783412    0.7117559399    0.7814923825
N        5.2056880313   -0.5469026356   -0.5513763138
N        3.0066054343   -1.2592928417   -0.3180577612
O        1.6248114614   -1.1197307584    1.5283176389
H        6.7190558431    2.1535484878    0.8091214492
H        4.3558696957    2.4178132373    1.6973785988
H        7.1341320423    0.1686029943   -0.7127508879
H       -0.3192322854   -0.9803307990   -0.1013656377
H        0.2954939238   -2.5477929306   -0.6227417432
H        0.6723627604   -1.1039354917   -1.5851618534
H        2.4198801762   -2.8439801292   -1.5587872801
H        4.1698570956   -2.6485258949   -1.3747431920
H        3.2716718181   -1.5325687400   -2.4165368518
20   
Generated by ForceBalance from scan.xyz: Frame 10 of 24
C        6.0012569136    1.4076754431    0.5589939014
C        4.6799984876    1.6555802253    0.9482512479
C        6.2030904454    0.2662063476   -0.2135247716
C        3.9866105090   -0.2442922072   -0.0837704336
C        1.7454893979   -1.1728687389    0.2849198190
C        0.4972109256   -1.5821714901   -0.4832815052
C        3.2005726918   -2.0075879507   -1.5865937164
N        3.6681094456    0.8517525040    0.6245605139
N        5.2092894671   -0.5703620892   -0.5375691387
N        2.9490777612   -1.1087851819   -0.4542891039
O        1.7047581732   -0.9517013020    1.4816541284
H        6.8148634501    2.0734556015    0.8268023429
H        4.4208355759    2.5416163185    1.5269867535
H        7.1919900912    0.0032091886   -0.5870550888
H       -0.3609113719   -1.2103280251    0.0778224259
H        0.4127442802   -2.6729471647   -0.5342538236
H        0.4752085238   -1.1841877926   -1.5010232237
H        2.2807955852   -2.5235442624   -1.8527628628
H        3.9592768659   -2.7490321597   -1.3235182975
H        3.5593702239   -1.4452847298   -2.4523049995
20   
Generated by ForceBalance from scan.xyz: Frame 11 of 24
C        5.9149290257    1.3450504144    0.7546984470
C        4.5902561487    1.7426907765    0.9655471970
C        6.0896764476    0.1279308893    0.0999630540
C        3.8337721473   -0.1686566423    0.0031540695
C        1.5938053935   -1.0649623200    0.3799802175
C        0.3752158888   -1.6853536812   -0.2851370568
C        2.9796917090   -1.8849949651   -1.5367763798
N        3.5465782801    1.0072744016    0.5816745652
N        5.0592955323   -0.6423417449   -0.2725452530
N        2.7518758510   -0.9657962807   -0.4148093458
O        1.5668832596   -0.7093109093    1.5464241655
H        6.7553162259    1.9563551715    1.0665387066
H        4.3570553697    2.6943113155    1.4419279220
H        7.0832213943   -0.2536148560   -0.1317003017
H       -0.4669848751   -1.5555999465    0.3943371917
H        0.5192545873   -2.7564195976   -0.4604309703
H        0.1478625685   -1.2126467941   -1.2454876086
H        2.0562425320   -2.0183757636   -2.0996194988
H        3.3399331693   -2.8610309159   -1.1938327155
H        3.7331378799   -1.4613617568   -2.1990055859
20   
Generated by ForceBalance from scan.xyz: Frame 12 of 24
C        5.8896437633    1.2981984587    0.8119703477
C        4.5901914356    1.8024325685    0.9237078017
C        6.0103215198    0.0472011014    0.2102229876
C        3.7489181814   -0.0819998391   -0.0188712932
C        1.5038010325   -0.9459290287    0.3642985333
C        0.3479576217   -1.7571962166   -0.2009359313
C        2.8565296094   -1.7613462607   -1.5725209420
N        3.5176444745    1.1329193680    0.4970110978
N        4.9477140586   -0.6566540618   -0.2007060779
N        2.6308109910   -0.8200622948   -0.4670708452
O        1.4414777405   -0.4407337641    1.4735241229
H        6.7543716979    1.8559193983    1.1563342649
H        4.4023462956    2.7863958871    1.3517651307
H        6.9838672642   -0.4156528064    0.0544896044
H       -0.4641518361   -1.7148274907    0.5243779943
H        0.6274454282   -2.8033063520   -0.3607201221
H        0.0013504015   -1.3524304597   -1.1569892378
H        1.9448459051   -1.8631737112   -2.1612332068
H        3.1746696417   -2.7474200590   -1.2171783537
H        3.6408488713   -1.3672544167   -2.2169038549
20   
Generated by ForceBalance from scan.xyz: Frame 13 of 24
C        5.7422363240    1.2573691722    0.7974182395
C        4.5793227115    1.1577092308    1.5685134740
C        5.7523378261    0.5259181481   -0.3882651396
C        3.6320843825   -0.2007113432    0.0160288560
C        1.2219067724   -0.5441523175   -0.1736488610
C        0.1259603347   -1.5802259973   -0.3671684613
C        2.8168038422   -2.1106612373   -1.3007610882
N        3.5297744708    0.4227312261    1.1995264801
N        4.7022692192   -0.1988825075   -0.7948610340
N        2.5401631296   -0.9854259692   -0.3989835351
O        0.9590307474    0.6082165172    0.1275522737
H        6.5918711251    1.8541825759    1.1122563026
H        4.4930050262    1.6696373995    2.5263072279
H        6.6229126162    0.5198730576   -1.0428412397
H       -0.8054866330   -1.1375543605   -0.0146704639
H        0.3301003798   -2.4990665083    0.1909848213
H        0.0078356032   -1.8443909387   -1.4229991496
H        2.0925291091   -2.9070147356   -1.1318614426
H        3.8139189503   -2.4971878664   -1.0953439168
H        2.7814740542   -1.8048702911   -2.3519960701
20   
Generated by ForceBalance from scan.xyz: Frame 14 of 24
C        5.7450454178    1.2221266614    0.8707174880
C        4.5129132259    1.2499102160    1.5338323512
C        5.8083147407    0.4110316306   -0.2600456954
C        3.6136177933   -0.1480122780   -0.0131227376
C        1.1946084784   -0.5336346071   -0.1571943404
C        0.1760394605   -1.6636161537   -0.1189074742
C        2.8151036864   -2.0053850768   -1.3914333764
N        3.4506981600    0.5638972661    1.1143317030
N        4.7523864510   -0.2739698663   -0.7163597851
N        2.5234385435   -0.8924432413   -0.4806574964
O        0.8632692370    0.6206530816    0.0442129341
H        6.6029103447    1.7830531489    1.2262000331
H        4.3777388295    1.8306801849    2.4457522906
H        6.7315378744    0.3029697237   -0.8280212968
H       -0.6525469233   -1.3274769172    0.5055462518
H        0.5881096168   -2.5935658098    0.2811642922
H       -0.2220519827   -1.8616167825   -1.1198306776
H        1.9061613625   -2.5744247262   -1.5734296924
H        3.5717656500   -2.6666371153   -0.9617206864
H        3.1937645492   -1.6282550649   -2.3447840808
20   
Generated by ForceBalance from scan.xyz: Frame 15 of 24
C        5.6453316749    1.1735575051    0.9173609691
C        4.3671461400    1.2964559105    1.4723767772
C        5.7504244385    0.3167564409   -0.1768683633
C        3.5128493425   -0.1079195583   -0.0960992946
C        1.0941223064   -0.5350561406   -0.2066364905
C        0.2016773611   -1.7522295571   -0.0127439580
C        2.7024214822   -1.9523813432   -1.4934925746
N        3.3022707532    0.6589078214    0.9872328917
N        4.6983152721   -0.3270898918   -0.6946476263
N        2.4225571557   -0.7940991673   -0.6368331552
O        0.6690298714    0.5939991875   -0.0581588542
H        6.5037603024    1.6971694787    1.3243888307
H        4.1919163310    1.9190340057    2.3492669773
H        6.7088110822    0.1346977984   -0.6618481193
H       -0.5540496102   -1.4864375128    0.7278453866
H        0.7527659773   -2.6366510995    0.3161752193
H       -0.3210702865   -1.9958091851   -0.9438399596
H        1.7710528275   -2.3125077340   -1.9274751303
H        3.1835250431   -2.7647277506   -0.9366329128
H        3.3697424664   -1.6494998704   -2.3002821101
20   
Generated by ForceBalance from scan.xyz: Frame 16 of 24
C        5.6387537772    1.1352971454    0.9690402097
C        4.3380730657    1.3137121026    1.4521097584
C        5.7694452930    0.2631693902   -0.1107610219
C        3.5169758224   -0.0755613320   -0.1492137585
C        1.1045838288   -0.5005509426   -0.2479702572
C        0.3368400257   -1.7525207579    0.1459038516
C        2.6909101150   -1.8796332432   -1.5874789554
N        3.2769552536    0.7128075786    0.9147623344
N        4.7243199189   -0.3473935296   -0.6800850457
N        2.4296860377   -0.7067082263   -0.7461368924
O        0.5973804222    0.6006287540   -0.2143787733
H        6.4935375923    1.6296768100    1.4179021749
H        4.1397605770    1.9536802135    2.3114132795
H        6.7453347782    0.0401144212   -0.5407209963
H       -0.3650068315   -1.4766011019    0.9345746048
H        0.9892821772   -2.5590469167    0.4886324214
H       -0.2495378753   -2.1182888792   -0.7037625043
H        1.7578124749   -2.1990886137   -2.0519689832
H        3.1202136506   -2.7126490448   -1.0177151485
H        3.3952412147   -1.6047269929   -2.3723564568
20   
Generated by ForceBalance from scan.xyz: Frame 17 of 24
C        5.4767329299    0.8061046006    0.9812329082
C        4.1784807545    0.8335948483    1.5021873866
C        5.6611717840    0.0161337812   -0.1537248972
C        3.4658144661   -0.5760930761   -0.1403041006
C        1.0751299322   -0.8006973694   -0.3865605070
C        0.3209183968   -1.6060893379    0.6327985086
C        2.5732181709   -1.9187349572   -1.9920242572
N        3.1703732907    0.1506031286    0.9616083104
N        4.6710765581   -0.6746297441   -0.7303953424
N        2.4224990256   -1.3108207060   -0.6654127085
O        0.6462179029    0.1688163373   -0.9680132730
H        6.2888169395    1.3673525208    1.4304476281
H        3.9391957841    1.4234770229    2.3864451012
H        6.6385782239   -0.0655101811   -0.6282148886
H       -0.6914757129   -1.2204754809    0.7591498734
H        0.8701161842   -1.5537127214    1.5783455986
H        0.2958492661   -2.6590615126    0.3321826013
H        1.7105722303   -2.5646280354   -2.1770494712
H        3.4805977347   -2.5217894057   -2.0090441294
H        2.6319322112   -1.1629668688   -2.7838159270
20   
Generated by ForceBalance from scan.xyz: Frame 18 of 24
C        5.4222247196    0.7653018524    0.9859388105
C        4.1070985608    0.8061101834    1.4588506162
C        5.6428806382   -0.0432388516   -0.1297694460
C        3.4468234625   -0.6359651303   -0.1788562220
C        1.0650175873   -0.9118201843   -0.4664595293
C        0.4234832501   -1.5454761872    0.7365495281
C        2.6195437808   -1.8840487807   -2.1118556427
N        3.1150183020    0.1197358638    0.8916261021
N        4.6725358113   -0.7462267942   -0.7234003263
N        2.4236100009   -1.3771652087   -0.7442390520
O        0.5269676278   -0.1129433213   -1.2000754853
H        6.2194066604    1.3338360001    1.4523078876
H        3.8370961885    1.4155314408    2.3206758985
H        6.6346780148   -0.1319608420   -0.5719976853
H       -0.5403769307   -1.0784555927    0.9428786355
H        1.0909752220   -1.4495882195    1.5957315078
H        0.2850758892   -2.6154224180    0.5415086021
H        1.7531429113   -2.4923529349   -2.3798144657
H        3.5156576319   -2.5029642726   -2.1348964961
H        2.7261980240   -1.0718245075   -2.8386500679
20   
Generated by ForceBalance from scan.xyz: Frame 19 of 24
C        5.3683046631    0.5816264789    0.9591885215
C        4.0287298337    0.6889705519    1.3416945008
C        5.6263314424   -0.2658758395   -0.1192501216
C        3.4140829428   -0.7736913504   -0.2955695749
C        1.0390428972   -1.0685362492   -0.6921110216
C        0.4376128846   -1.5245229159    0.6125201655
C        2.6778831055   -1.9486364899   -2.3042218858
N        3.0464828107    0.0303831367    0.7244258025
N        4.6677968408   -0.9490355305   -0.7524493495
N        2.4049495107   -1.4861150217   -0.9312895957
O        0.4251394259   -0.4599248707   -1.5443315827
H        6.1566026429    1.1315068093    1.4616713359
H        3.7277905886    1.3345956919    2.1660093150
H        6.6394147152   -0.4056322207   -0.4948885847
H       -0.4003749901   -0.8789140111    0.8791896329
H        1.1781808134   -1.5445174984    1.4108208871
H        0.0617336671   -2.5448598877    0.4634157032
H        1.8032592011   -2.4934665826   -2.6608550787
H        3.5420789156   -2.6113621963   -2.2868100734
H        2.8800886435   -1.1147756243   -2.9838159981
20   
Generated by ForceBalance from scan.xyz: Frame 20 of 24
C        5.2803980868    0.6679842282    1.0287179184
C        3.9445178653    0.7368262982    1.4304313982
C        5.5397340817   -0.1378384374   -0.0809383048
C        3.3338606833   -0.6819263382   -0.2459960725
C        0.9588894307   -1.1122757816   -0.6155645314
C        0.4759781112   -1.3740900659    0.7934512112
C        2.6168032048   -1.8007466211   -2.2942278331
N        2.9661197689    0.0816496563    0.8024528612
N        4.5854803368   -0.8183818086   -0.7223636209
N        2.3336624895   -1.3908835932   -0.9063914527
O        0.2140836566   -0.7295977139   -1.4997817215
H        6.0647916028    1.2155231833    1.5398563328
H        3.6420525267    1.3488803594    2.2794247733
H        6.5498337646   -0.2458406955   -0.4745552125
H        0.1535464217   -0.4325793529    1.2428013527
H        1.2379693423   -1.8270658160    1.4258864292
H       -0.3960061789   -2.0323664838    0.7217028958
H        1.7592663782   -2.3606172207   -2.6647469162
H        3.5065261959   -2.4285297119   -2.3003784098
H        2.7849510381   -0.9373426186   -2.9454642020
20   
Generated by ForceBalance from scan.xyz: Frame 21 of 24
C        5.2603838665    0.6810646211    1.0069876882
C        3.9234885407    0.7415914789    1.4048734773
C        5.5265869861   -0.1211189631   -0.1037575177
C        3.3229846248   -0.6798572667   -0.2728683896
C        0.9565099651   -1.2781783539   -0.6247324118
C        0.5433635898   -1.4005625157    0.8264787035
C        2.6430941046   -1.8196798968   -2.3287195477
N        2.9501338080    0.0816173765    0.7733853750
N        4.5774001745   -0.8059456358   -0.7469885498
N        2.3354323749   -1.3902691976   -0.9529045235
O        0.1303098627   -1.1551531206   -1.5152881105
H        6.0404787667    1.2319351528    1.5211353788
H        3.6147195980    1.3513343436    2.2532761004
H        6.5378868371   -0.2225792864   -0.4959964167
H        0.2821716018   -0.4140592427    1.2145657857
H        1.3231684110   -1.8217661084    1.4601060727
H       -0.3513048885   -2.0289701835    0.8494612522
H        1.7938815497   -2.3872632723   -2.7031795494
H        3.5406293516   -2.4363709244   -2.3155921639
H        2.8129953871   -0.9610981255   -2.9857733656
20   
Generated by ForceBalance from scan.xyz: Frame 22 of 24
C        5.2534364975    0.6595007906    1.0295032276
C        3.9118511341    0.7379887995    1.4074901359
C        5.5219696310   -0.1306729046   -0.0890713108
C        3.3103931968   -0.6486200013   -0.2987237821
C        0.9581543721   -1.3741848468   -0.6587782577
C        0.5718267982   -1.3817468390    0.8057668428
C        2.6814547380   -1.7760594028   -2.3755788536
N        2.9366000374    0.1050409995    0.7516349673
N        4.5702682179   -0.7886192113   -0.7558999276
N        2.3269307971   -1.3262301391   -1.0182164273
O        0.1071355720   -1.4790021684   -1.5313774197
H        6.0352735118    1.1880477472    1.5640785421
H        3.6007727096    1.3410129738    2.2598665713
H        6.5370402227   -0.2448470070   -0.4678388451
H        0.3573964566   -0.3646909446    1.1390297801
H        1.3528302317   -1.7837187689    1.4516085590
H       -0.3391508358   -1.9793215750    0.8840782706
H        1.7999427060   -2.2368444719   -2.8138945646
H        3.5050641063   -2.4883735609   -2.3201699418
H        2.9931978512   -0.9311743621   -2.9959204352
20   
Generated by ForceBalance from scan.xyz: Frame 23 of 24
C        5.2398320236    0.6401044798    0.9729112136
C        3.8976356989    0.7422811659    1.3423191149
C        5.5002720828   -0.1482283092   -0.1487986562
C        3.2795266993   -0.6216198191   -0.3759612505
C        0.9534184761   -1.4766271956   -0.7079871889
C        0.5809951654   -1.3670264949    0.7563713713
C        2.6605181146   -1.7219093237   -2.4699715948
N        2.9145413259    0.1331240207    0.6754764696
N        4.5398239772   -0.7831910883   -0.8252627712
N        2.2898736960   -1.2702890181   -1.1171493060
O        0.1120536954   -1.8055176122   -1.5356186040
H        6.0282967682    1.1494097298    1.5164216553
H        3.5923705536    1.3461673906    2.1961737640
H        6.5154013920   -0.2806170067   -0.5214128039
H        0.3876437694   -0.3266201731    1.0226974505
H        1.3662846946   -1.7298491377    1.4210694845
H       -0.3319311523   -1.9507886104    0.8860492274
H        1.7568182043   -2.0801217553   -2.9555788541
H        3.4056420617   -2.5173682165   -2.4094510659
H        3.0859118895   -0.8929934478   -3.0398840423
20   
Generated by ForceBalance from scan.xyz: Frame 24 of 24
C        5.2495439403    0.6285199750    1.0065558216
C        3.9109146178    0.7216337324    1.3902163381
C        5.4991956204   -0.1332401168   -0.1356484543
C        3.2751827117   -0.5981874118   -0.3564653273
C        0.9853254361   -1.5775542091   -0.6641925216
C        0.5664146246   -1.3230542992    0.7685728700
C        2.6605940145   -1.6827793092   -2.4597847312
N        2.9218191184    0.1291701954    0.7171426389
N        4.5320787521   -0.7506949161   -0.8186518106
N        2.2793851538   -1.2283394375   -1.1100493064
O        0.2136235637   -2.1293787305   -1.4408150257
H        6.0433034712    1.1230900163    1.5559511930
H        3.6133295030    1.3034037717    2.2619796068
H        6.5110143824   -0.2592936449   -0.5193071240
H        0.4130713275   -0.2578230673    0.9468667991
H        1.3184234660   -1.6574538241    1.4857066082
H       -0.3679257506   -1.8660223874    0.9160354972
H        1.7486235968   -1.9451097210   -2.9889246464
H        3.3209963534   -2.5515635443   -2.4025433376
H        3.1882144985   -0.8818296123   -2.9785626781
