30   

C       -1.4650254241    0.9912887368    0.9589613511
C       -1.2253923113   -0.2450950313    1.5609214319
C       -0.4776964857    1.5761662745    0.1648050724
C        5.5556513056    1.2137477224   -1.2702766385
C       -0.0016993567   -0.8969106170    1.3688503563
C        0.7463640464    0.9261579245   -0.0264572422
C        5.2003647034   -0.0051562269   -1.8399082097
C        4.8961294677    1.6496953968   -0.1257585687
C        1.0067420072   -0.3261700446    0.5726806518
C        3.4642495892   -0.3164043582   -0.1651246874
C        4.1833791063   -0.7895736611   -1.2894231045
C        3.8634136500    0.8971783436    0.4373810030
C        2.2913810884   -1.0575555883    0.3842140039
C        3.8363286978   -3.1684690603   -1.0974740792
C        3.5863279016   -3.0961902637    0.4131487353
N        2.3635974534   -2.3259021198    0.7311504130
N        3.9404153336   -2.0349434298   -1.8694861366
O        3.9877408950   -4.2392931776   -1.6644000947
F        3.2676318872    1.3515409551    1.5646167315
H       -2.4148660374    1.4931807426    1.1054425418
H       -1.9893586436   -0.7042904688    2.1779863563
H       -0.6616076002    2.5333423645   -0.3097709854
H        6.3517290939    1.8094954158   -1.7047976246
H        0.1497068094   -1.8565719539    1.8517353507
H        1.4814483436    1.4002764036   -0.6662032372
H        5.7390070378   -0.3549269170   -2.7131016841
H        5.1802731296    2.5849217273    0.3420023964
H        3.4759893014   -4.1173461821    0.7885149453
H        4.4580694287   -2.6561250313    0.9054159861
H        4.2560662732   -2.2353001964   -2.8097886014
30   

C       -1.4091914693    1.0665074833    1.0053531079
C       -1.1139855815   -0.0891303032    1.7317288178
C       -0.5104573510    1.5259468937    0.0407186174
C        5.5561041022    1.2241088814   -1.1852584433
C        0.0729570879   -0.7897681393    1.4875012855
C        0.6769715095    0.8266035708   -0.2008093770
C        5.2443518255    0.0055529592   -1.7802263806
C        4.8351244362    1.6437960009   -0.0724473314
C        0.9777853201   -0.3570938044    0.5053286860
C        3.4370081711   -0.3438618499   -0.1901524682
C        4.2124476301   -0.7962709314   -1.2852875122
C        3.7865573505    0.8742380316    0.4355161207
C        2.2481215831   -1.1034158293    0.2910800637
C        3.8543151023   -3.1813142410   -1.1555221742
C        3.5416643888   -3.1403889907    0.3444891946
N        2.3110912465   -2.3719847209    0.6362443506
N        4.0042627357   -2.0329025218   -1.8970284516
O        4.0211382959   -4.2406363897   -1.7393944652
F        3.1322285524    1.3168845881    1.5345761529
H       -2.3310975413    1.6058291473    1.1917574051
H       -1.8048927613   -0.4457971254    2.4871521881
H       -0.7336538553    2.4244112094   -0.5233199336
H        6.3640682305    1.8336410091   -1.5765463894
H        0.2814935123   -1.6809961915    2.0701032567
H        1.3566550989    1.2008478618   -0.9582799578
H        5.8271138881   -0.3287788844   -2.6308296992
H        5.0824620186    2.5800631246    0.4137687686
H        3.4130145624   -4.1693283282    0.6917635335
H        4.3950047826   -2.7162026913    0.8808272759
H        4.3623069504   -2.2151150564   -2.8258130091
30   

C       -1.3480033363    1.1283431539    1.0177485152
C       -0.9741830825    0.0725572328    1.8526763816
C       -0.5593593933    1.4476360581   -0.0897996290
C        5.5674850133    1.2316970392   -1.0920374625
C        0.1766908086   -0.6726767159    1.5705439685
C        0.5923030939    0.7031031410   -0.3670655634
C        5.2952085295    0.0177582260   -1.7147055804
C        4.7903467718    1.6325464331   -0.0108474592
C        0.9550072189   -0.3946449240    0.4381513116
C        3.4220056168   -0.3697718904   -0.2112912901
C        4.2493178065   -0.7993758384   -1.2775020630
C        3.7268153312    0.8479456268    0.4397347389
C        2.2192823203   -1.1462883211    0.2003763477
C        3.8845168577   -3.1885427077   -1.2152786246
C        3.5136186101   -3.1811902877    0.2718669626
N        2.2755200352   -2.4159662354    0.5398286131
N        4.0743086597   -2.0244995412   -1.9220743254
O        4.0672257569   -4.2347237958   -1.8177243169
F        3.0188349645    1.2769264793    1.5105152687
H       -2.2422713500    1.7022222643    1.2332706136
H       -1.5742175971   -0.1697407468    2.7224049335
H       -0.8383795911    2.2736751808   -0.7339913118
H        6.3865233642    1.8534863992   -1.4383991768
H        0.4594473281   -1.4809784417    2.2368027562
H        1.1997959255    0.9698970667   -1.2250337928
H        5.9185090455   -0.2997236559   -2.5427033918
H        5.0042281431    2.5664192912    0.4954050915
H        3.3696211735   -4.2177771512    0.5891150921
H        4.3475145051   -2.7734595484    0.8498151886
H        4.4720640138   -2.1865253096   -2.8383985972
30   

C       -1.2926487602    1.1821387397    0.9941445494
C       -0.8173768562    0.2650472516    1.9348749684
C       -0.6293198745    1.3277407029   -0.2264504615
C        5.5885486548    1.2346398040   -0.9815714373
C        0.3055413916   -0.5188820414    1.6451010390
C        0.4949741445    0.5442686804   -0.5091633521
C        5.3423267476    0.0314988042   -1.6346373970
C        4.7723011183    1.6140502657    0.0779586960
C        0.9461565219   -0.4278208822    0.4029578978
C        3.4219240389   -0.3918800853   -0.2007514707
C        4.2855080025   -0.7969427582   -1.2480325737
C        3.6968532424    0.8184562323    0.4783927000
C        2.2093964419   -1.1829946519    0.1494472314
C        3.9126424671   -3.1876042816   -1.2599992627
C        3.4988901627   -3.2193296444    0.2154920328
N        2.2570305985   -2.4563048106    0.4724312399
N        4.1325996362   -2.0060710764   -1.9277058100
O        4.1048358496   -4.2176390589   -1.8867721990
F        2.9522172875    1.2315278131    1.5299909850
H       -2.1656079379    1.7859139746    1.2152460127
H       -1.3153687567    0.1622968589    2.8922543848
H       -0.9827892208    2.0504264061   -0.9530668391
H        6.4161565600    1.8656141737   -1.2886857258
H        0.6768797393   -1.2154129255    2.3893795861
H        1.0140376442    0.6791950942   -1.4519133846
H        5.9935635811   -0.2677726484   -2.4477637415
H        4.9638398162    2.5404901842    0.6062991830
H        3.3419773724   -4.2637627946    0.4991465847
H        4.3179687118   -2.8321978105    0.8276645279
H        4.5582598828   -2.1448971306   -2.8352919126
30   

C       -1.3057974047    1.2089487289    0.9179337576
C       -0.6953798196    0.5156649400    1.9659820465
C       -0.7766008285    1.1182765378   -0.3715119105
C        5.6297070777    1.2069313960   -0.8565488374
C        0.4282221942   -0.2815938622    1.7183203077
C        0.3491158725    0.3223052702   -0.6107856213
C        5.3622694275    0.0354263315   -1.5561277807
C        4.8176430863    1.5601083529    0.2146136680
C        0.9367403781   -0.4283160278    0.4227237435
C        3.4308166150   -0.4093865093   -0.1413538925
C        4.2892933050   -0.7875372725   -1.2038924107
C        3.7259601587    0.7705525520    0.5819240620
C        2.2006859716   -1.1926485338    0.1667090963
C        3.8667172898   -3.1682275787   -1.3253141809
C        3.4394198032   -3.2587193731    0.1435587704
N        2.2117754397   -2.4808925581    0.4219951580
N        4.1141286722   -1.9621858105   -1.9369939478
O        4.0417715960   -4.1719811616   -1.9980580371
F        2.9891030566    1.1613839480    1.6460528550
H       -2.1799119493    1.8220372736    1.1064634786
H       -1.0893076672    0.5967766475    2.9726359933
H       -1.2358598083    1.6663503002   -1.1863266831
H        6.4692678059    1.8341388387   -1.1378083554
H        0.9056178144   -0.8050952131    2.5396706488
H        0.7633695162    0.2714843263   -1.6118834799
H        6.0086389899   -0.2429157615   -2.3804755603
H        5.0246489430    2.4622538667    0.7779789794
H        3.2569511761   -4.3112858860    0.3774893390
H        4.2607092004   -2.9175714665    0.7796138959
H        4.5406373243   -2.0684276424   -2.8485791453
30   

C       -1.2788561593    0.7118907901    0.6771922608
C       -0.4822953756    0.4376782682    1.7912974488
C       -0.8419169464    0.3335104146   -0.5938266746
C        5.8623151129    1.3358548281   -0.6959368866
C        0.7486887373   -0.2099599020    1.6321441983
C        0.3895649372   -0.3129437525   -0.7455774467
C        5.5959556636    0.2516979968   -1.5224275974
C        5.0860683221    1.5302159123    0.4388469527
C        1.2052906993   -0.5911517019    0.3652192855
C        3.7296417080   -0.4215961943   -0.1028574088
C        4.5576314614   -0.6390840981   -1.2376060871
C        4.0306189256    0.6694142494    0.7474828819
C        2.5272318271   -1.2719643713    0.1447278193
C        4.2209817154   -2.9991715495   -1.6623623916
C        3.7828276575   -3.2944713787   -0.2277498295
N        2.5326129468   -2.5843695743    0.1138325176
N        4.3937765420   -1.7134908621   -2.1147530506
O        4.4530726693   -3.8994763656   -2.4538509203
F        3.3398711072    0.9072583386    1.8824870139
H       -2.2334782271    1.2113100668    0.7988688485
H       -0.8196285164    0.7215384847    2.7816447485
H       -1.4566905768    0.5381947524   -1.4629936509
H        6.6737661106    2.0172952623   -0.9294592023
H        1.3432566517   -0.4346032791    2.5104520883
H        0.7201736162   -0.6055643817   -1.7364212713
H        6.2163110126    0.0957435280   -2.3974905806
H        5.2939097385    2.3629830892    1.1001712676
H        3.6224192674   -4.3721994679   -0.1346951290
H        4.5854466081   -3.0173663582    0.4614302552
H        4.8101124394   -1.6860978321   -3.0366068971
30   

C       -1.3608892151    0.5776790499    0.6187341040
C       -0.4523961349    0.6763364442    1.6727884641
C       -1.0056188590   -0.1309643588   -0.5278567854
C        5.9157937046    1.3246009060   -0.5416951804
C        0.8148485308    0.0883425282    1.5708807315
C        0.2607952797   -0.7165385094   -0.6213757925
C        5.5269833166    0.3812982148   -1.4833546912
C        5.2687837343    1.3615500622    0.6862242500
C        1.2153879045   -0.5823349093    0.4074991836
C        3.7654880521   -0.4308156642    0.0001048458
C        4.4828840815   -0.5106343478   -1.2261926052
C        4.2138387443    0.4920385097    0.9733945627
C        2.5418808964   -1.2651962186    0.2249849833
C        4.1027625820   -2.7987912035   -1.8859119673
C        3.7300647764   -3.2469013420   -0.4730552250
N        2.5055640793   -2.5565896802   -0.0188601748
N        4.2217315427   -1.4681408668   -2.2089832972
O        4.3055574981   -3.6084904224   -2.7771233885
F        3.6818961990    0.5427648348    2.2106992843
H       -2.3413835779    1.0338712821    0.6966219410
H       -0.7338836365    1.1985080136    2.5801877319
H       -1.7099823829   -0.2316977592   -1.3458058438
H        6.7294902620    2.0097437500   -0.7557860923
H        1.4515422723    0.1413654641    2.4409566216
H        0.5188259899   -1.2734916491   -1.5161987472
H        6.0593251059    0.3319940697   -2.4262908914
H        5.5843329042    2.0718285794    1.4411288290
H        3.5544068906   -4.3261564462   -0.4876708061
H        4.5646239257   -3.0525355451    0.2067510167
H        4.5770376101   -1.3392897492   -3.1474620805
30   

C       -1.4093361329    0.5166958023    0.6266864711
C       -0.4044728515    0.8958416049    1.5146575585
C       -1.1289747155   -0.4276107941   -0.3572993342
C        5.9437339008    1.3323424090   -0.3852401808
C        0.8805870571    0.3491092431    1.4055235977
C        0.1552295948   -0.9712474488   -0.4579062734
C        5.5001880017    0.5004524354   -1.4066995296
C        5.3536481786    1.2398800416    0.8703973475
C        1.2103537855   -0.5631871582    0.3913634498
C        3.7753018618   -0.4187882330    0.0482782042
C        4.4490552591   -0.3958471675   -1.2003626120
C        4.2927859326    0.3610134194    1.1043332206
C        2.5378759208   -1.2458880739    0.2399356253
C        4.0549179129   -2.6320443548   -1.9908899008
C        3.7348280144   -3.1713269358   -0.5935133758
N        2.5141940878   -2.5262207206   -0.0657923114
N        4.1507889872   -1.2813981438   -2.2377130143
O        4.2334358438   -3.3848448611   -2.9356342802
F        3.8245094336    0.2441229967    2.3656730489
H       -2.4029313313    0.9429714403    0.7079905479
H       -0.6209859876    1.6133754537    2.2979647456
H       -1.9051602272   -0.7446985296   -1.0445738659
H        6.7630868890    2.0222275374   -0.5587217804
H        1.5997106895    0.6691870229    2.1414202886
H        0.3401459388   -1.7125215219   -1.2285668102
H        5.9988686665    0.5356220055   -2.3684775277
H        5.7229480483    1.8488510223    1.6868675820
H        3.5727858043   -4.2502880712   -0.6672155755
H        4.5871256002   -3.0056254479    0.0717923280
H        4.4754093201   -1.0911699164   -3.1768341475
30   

C       -1.4199776009    0.5262523227    0.6662090242
C       -0.3371395395    1.0828490613    1.3430872104
C       -1.2168269018   -0.5851165654   -0.1468159553
C        5.9662262028    1.3271543251   -0.2637914637
C        0.9455428988    0.5403426082    1.1948234301
C        0.0656065173   -1.1242878326   -0.2875769327
C        5.5295280456    0.5473562973   -1.3296639522
C        5.3536107358    1.1874294364    0.9776953148
C        1.1951930337   -0.5529891977    0.3490428314
C        3.7675022691   -0.4052246380    0.0524995867
C        4.4635861204   -0.3426021474   -1.1798199326
C        4.2759845985    0.3152993079    1.1527513034
C        2.5225424563   -1.2307163947    0.1990942365
C        4.0690789922   -2.5495309137   -2.0418960408
C        3.7445918751   -3.1297740560   -0.6601127562
N        2.5163836799   -2.5090124533   -0.1189251045
N        4.1751718560   -1.1922928705   -2.2487731209
O        4.2494140602   -3.2752612199   -3.0072912924
F        3.7718753091    0.1473781912    2.3968118229
H       -2.4122767694    0.9490721539    0.7763337817
H       -0.4890884179    1.9406470496    1.9883713888
H       -2.0521566179   -1.0359813394   -0.6705791872
H        6.7983810349    2.0115280872   -0.3924644634
H        1.7355673301    1.0249969126    1.7462420656
H        0.1795962125   -1.9960158544   -0.9234860756
H        6.0464860005    0.6154689349   -2.2799613783
H        5.7176568204    1.7528699879    1.8271958941
H        3.5908544645   -4.2073430705   -0.7651106236
H        4.5924790416   -2.9778321638    0.0140175930
H        4.5097155652   -0.9744419653   -3.1783833557
30   

C       -1.4090142031    0.5692966694    0.6936423804
C       -0.2725180352    1.2360491392    1.1461875057
C       -1.2706001880   -0.6638108966    0.0623977046
C        5.9812019952    1.3075510463   -0.1575843840
C        0.9979020472    0.6771238559    0.9595581623
C       -0.0002219143   -1.2194769319   -0.1187791017
C        5.5771430619    0.5524932403   -1.2542964599
C        5.3151002501    1.1581902496    1.0551639095
C        1.1767213221   -0.5509647835    0.3009932529
C        3.7504551548   -0.3999427001    0.0392127777
C        4.4948604462   -0.3258252233   -1.1627920436
C        4.2190086899    0.2995942681    1.1703396440
C        2.5016625607   -1.2251632483    0.1332735185
C        4.1053834978   -2.5123012320   -2.0775557585
C        3.7455537673   -3.1149738217   -0.7135303418
N        2.5064036017   -2.5032351459   -0.1859088265
N        4.2355445312   -1.1531435583   -2.2560183296
O        4.3020501443   -3.2220382209   -3.0516138456
F        3.6418366229    0.1352937405    2.3838483517
H       -2.3923434302    1.0039033159    0.8341880515
H       -0.3728402539    2.1941604625    1.6434297344
H       -2.1473246096   -1.1966098279   -0.2881357718
H        6.8272283391    1.9819532184   -0.2404083600
H        1.8335578043    1.2575481646    1.3208818864
H        0.0603681936   -2.1858895988   -0.6080750983
H        6.1325354179    0.6300186324   -2.1819240787
H        5.6487052205    1.7072081498    1.9276845576
H        3.5931468652   -4.1902403205   -0.8414507713
H        4.5781354051   -2.9773843700   -0.0176510861
H        4.5996333907   -0.9213257170   -3.1710821929
30   

C       -1.3879226077    0.6204366502    0.7028598820
C       -0.2212355579    1.3482466495    0.9303282718
C       -1.2970606698   -0.6965881690    0.2587579206
C        5.9860958630    1.2673742937   -0.0592253674
C        1.0321794345    0.7632588111    0.7118254896
C       -0.0438375182   -1.2785971503    0.0433280932
C        5.6279569575    0.5224711973   -1.1788589684
C        5.2546147538    1.1261060881    1.1161284283
C        1.1572832009   -0.5583686788    0.2527167738
C        3.7284524726   -0.4144806634    0.0166424526
C        4.5313034665   -0.3424555318   -1.1469141402
C        4.1425487334    0.2826985220    1.1710450660
C        2.4754256581   -1.2336682763    0.0526186938
C        4.1432568747   -2.5108855023   -2.1089783290
C        3.7292014208   -3.1276972460   -0.7667861341
N        2.4810896229   -2.5119294377   -0.2647429578
N        4.3099030878   -1.1528014004   -2.2607589304
O        4.3605519725   -3.2091939000   -3.0868802956
F        3.4836696544    0.1431937415    2.3454885308
H       -2.3582216278    1.0745123150    0.8699381437
H       -0.2852610307    2.3742041613    1.2746965440
H       -2.1975120101   -1.2736314694    0.0810165481
H        6.8439831279    1.9308278889   -0.0956160814
H        1.8935242276    1.3926105346    0.8857367605
H       -0.0168099396   -2.3087564459   -0.2958029432
H        6.2296092780    0.5983229301   -2.0773174715
H        5.5461054798    1.6721589404    2.0054901825
H        3.5694884824   -4.1990933293   -0.9163921706
H        4.5406099237   -3.0111197822   -0.0427063184
H        4.7141943231   -0.9142199335   -3.1570732414
30   

C       -1.3680550963    0.6576981248    0.7145584540
C       -0.1972526252    1.4150614026    0.7234866215
C       -1.2986908149   -0.7095121601    0.4534413251
C        5.9785541648    1.2254200355    0.0262084993
C        1.0397534285    0.8075293991    0.4757963760
C       -0.0618062964   -1.3140194091    0.2068327675
C        5.6710825568    0.4825698728   -1.1097936058
C        5.1822667459    1.0986828528    1.1601298831
C        1.1405478513   -0.5688355882    0.2159807932
C        3.7055330177   -0.4373717280   -0.0122069439
C        4.5650781014   -0.3708838618   -1.1349282110
C        4.0597365117    0.2678288117    1.1582236025
C        2.4475223083   -1.2448981690   -0.0352086912
C        4.1716865177   -2.5190648758   -2.1478389909
C        3.6992479612   -3.1491762364   -0.8318075114
N        2.4470189512   -2.5226213026   -0.3534561158
N        4.3828792201   -1.1645175937   -2.2677164156
O        4.4051265359   -3.2049526538   -3.1307613930
F        3.3292413639    0.1531869646    2.2920633786
H       -2.3258023396    1.1285346915    0.9058846116
H       -0.2461179423    2.4803662597    0.9183782919
H       -2.2031234638   -1.3071956739    0.4418288340
H        6.8443187288    1.8795377285    0.0341206836
H        1.9089610710    1.4521948342    0.4694444516
H       -0.0457636992   -2.3809097985    0.0105990479
H        6.3180015335    0.5533319593   -1.9766564037
H        5.4289677996    1.6478839663    2.0610655457
H        3.5259665948   -4.2146915311   -1.0063013995
H        4.4887786219   -3.0611684824   -0.0801318103
H        4.8283761247   -0.9207238897   -3.1429053997
30   

C       -1.3547715246    0.6781880056    0.7237137132
C       -0.2066260179    1.4450521727    0.5233263041
C       -1.2761614632   -0.7118145433    0.6435555313
C        5.9636565732    1.1935252408    0.1017590773
C        1.0184729035    0.8235883441    0.2530448900
C       -0.0509779606   -1.3299676971    0.3725754837
C        5.7041422690    0.4511095729   -1.0463313028
C        5.1100722045    1.0807503594    1.1944006898
C        1.1291328790   -0.5746078033    0.1911146548
C        3.6845206585   -0.4559019296   -0.0397823521
C        4.5932104999   -0.3929412917   -1.1236576283
C        3.9815210667    0.2601031830    1.1408971344
C        2.4217998663   -1.2480046602   -0.1205837588
C        4.1894881295   -2.5163672607   -2.1934555235
C        3.6643667187   -3.1625578669   -0.9061481470
N        2.4122141001   -2.5242599980   -0.4431653912
N        4.4467196561   -1.1675147084   -2.2747635569
O        4.4319062859   -3.1859349940   -3.1853756150
F        3.1927410281    0.1652861379    2.2367517626
H       -2.3035285111    1.1590790925    0.9338493429
H       -0.2648791983    2.5264701155    0.5717386934
H       -2.1644831813   -1.3157872757    0.7899255362
H        6.8338035439    1.8400299216    0.1502272066
H        1.8771562787    1.4609377185    0.0787508419
H       -0.0216454230   -2.4128777735    0.3128517769
H        6.3903905540    0.5179361959   -1.8827210708
H        5.3151646065    1.6338098788    2.1033860989
H        3.4753108897   -4.2202692412   -1.1094442946
H        4.4343372671   -3.1079546939   -0.1314824546
H        4.9283290574   -0.9167590623   -3.1286544492
30   

C       -1.3543555827    0.6841213171    0.7358013183
C       -0.2528495492    1.4386343094    0.3285313413
C       -1.2374879369   -0.7019088425    0.8471371243
C        5.9502313487    1.1481008864    0.1931208559
C        0.9659650511    0.8097103227    0.0480803237
C       -0.0184329783   -1.3271823185    0.5642046513
C        5.7311956265    0.4036692488   -0.9618441496
C        5.0468300624    1.0543435329    1.2463922126
C        1.1181926578   -0.5779453543    0.1932471059
C        3.6627337429   -0.4808333631   -0.0367872791
C        4.6145712371   -0.4275874107   -1.0839803884
C        3.9115816449    0.2472833193    1.1485382144
C        2.3944551000   -1.2527502402   -0.1713677642
C        4.1959858654   -2.5279773512   -2.2015247265
C        3.6214186361   -3.1834525806   -0.9408474384
N        2.3723592687   -2.5288219255   -0.4924090295
N        4.4986303894   -1.1874304413   -2.2484394122
O        4.4437991197   -3.1846946253   -3.2006326344
F        3.0742993265    0.1760534756    2.2096012660
H       -2.2983675442    1.1702442879    0.9550222437
H       -0.3435097936    2.5137730688    0.2235026132
H       -2.0918341570   -1.2969260058    1.1493366783
H        6.8251014018    1.7845647373    0.2765806247
H        1.7956761818    1.4211622844   -0.2886527969
H        0.0460264606   -2.4071682576    0.6458616947
H        6.4517231499    0.4618066695   -1.7695453541
H        5.2168811843    1.6126169677    2.1594107556
H        3.4147338267   -4.2327633121   -1.1690607794
H        4.3727493430   -3.1610649015   -0.1466377854
H        5.0132041399   -0.9346322237   -3.0823161316
30   

C       -1.3536328398    0.6734246616    0.7280971156
C       -0.3271634932    1.4002772727    0.1212090594
C       -1.1629142126   -0.6782074555    1.0211376247
C        5.9656416347    1.1041966280    0.2723593329
C        0.8932033564    0.7807096556   -0.1727417035
C        0.0575159315   -1.2938294088    0.7227994095
C        5.7748770500    0.3775497218   -0.8985411556
C        5.0226330667    1.0161893385    1.2904150641
C        1.1242359914   -0.5607883036    0.1655193635
C        3.6625071069   -0.4870004501   -0.0558214265
C        4.6494466842   -0.4328128483   -1.0704050862
C        3.8779262359    0.2301959942    1.1435804758
C        2.3878584588   -1.2329274708   -0.2481526963
C        4.2135007682   -2.4951153413   -2.2557068944
C        3.5957015393   -3.1717583589   -1.0273908760
N        2.3518519319   -2.5048660610   -0.5823342729
N        4.5557923936   -1.1636632183   -2.2553265547
O        4.4649041723   -3.1282141877   -3.2690224224
F        3.0033847648    0.1678972219    2.1746915077
H       -2.2986403023    1.1521496041    0.9589562890
H       -0.4783282814    2.4442794567   -0.1285360442
H       -1.9616513600   -1.2542753157    1.4743394166
H        6.8474177251    1.7246339460    0.3946005577
H        1.6695456398    1.3566467055   -0.6646458530
H        0.1834643389   -2.3497927321    0.9378234521
H        6.5231710643    0.4351987625   -1.6805979918
H        5.1680211733    1.5632846153    2.2143839244
H        3.3712290368   -4.2091356323   -1.2907271269
H        4.3303184049   -3.1897748926   -0.2176847903
H        5.0991296979   -0.9011196907   -3.0677117696
30   

C       -1.3820976158    0.6497530575    0.7317268559
C       -0.4561721161    1.3124826171   -0.0776929698
C       -1.0866917879   -0.6253896436    1.2189710471
C        5.9802781219    1.0327573020    0.3764240162
C        0.7711076543    0.7097294566   -0.3780236384
C        0.1400501176   -1.2243662571    0.9124318802
C        5.8040388933    0.3313436708   -0.8118155567
C        5.0087191349    0.9492638236    1.3674323892
C        1.1110176950   -0.5398070123    0.1575497092
C        3.6531758908   -0.5034982204   -0.0379993061
C        4.6660081369   -0.4505563951   -1.0270359436
C        3.8511077355    0.1917671539    1.1776711868
C        2.3687059663   -1.2163693691   -0.2797109710
C        4.2045176635   -2.4715114837   -2.2749298949
C        3.5484502207   -3.1650438251   -1.0762686845
N        2.3129054565   -2.4820151870   -0.6323219440
N        4.5838578636   -1.1510278105   -2.2310572266
O        4.4555190962   -3.0823909527   -3.3018670215
F        2.9497158124    0.1350088577    2.1856068058
H       -2.3320274775    1.1158384608    0.9681604944
H       -0.6916779712    2.2913396037   -0.4796289105
H       -1.8097586640   -1.1558732610    1.8280165625
H        6.8716652150    1.6314948678    0.5323852364
H        1.4708964922    1.2251569117   -1.0269320603
H        0.3502982149   -2.2257937816    1.2728332241
H        6.5726964934    0.3875360771   -1.5739491597
H        5.1410595413    1.4784280573    2.3037030001
H        3.3042264456   -4.1891972299   -1.3718609884
H        4.2682520142   -3.2228930182   -0.2552787130
H        5.1509462027   -0.8813565307   -3.0246866656
30   

C       -1.4062574283    0.6676293375    0.7379280892
C       -0.6002411813    1.1997614324   -0.2723227747
C       -0.9894303397   -0.4738001130    1.4277682141
C        5.9945439882    0.9675909713    0.5069785234
C        0.6306379848    0.6048018914   -0.5737384607
C        0.2399042686   -1.0667866773    1.1196103208
C        5.8201588022    0.3144427662   -0.7085721692
C        5.0093522738    0.8655454790    1.4825174288
C        1.0910485077   -0.4983622295    0.1556522339
C        3.6456737061   -0.5101658929    0.0090855299
C        4.6710155720   -0.4378398654   -0.9661819687
C        3.8404922487    0.1373942210    1.2510391304
C        2.3503728990   -1.1873814446   -0.2767086218
C        4.1821145523   -2.3946750864   -2.3055388773
C        3.4928310385   -3.1240092124   -1.1477200102
N        2.2671404111   -2.4309177342   -0.6929136846
N        4.5901700767   -1.0864063699   -2.1992554739
O        4.4326881873   -2.9653742286   -3.3554380959
F        2.9259947089    0.0618098135    2.2453515016
H       -2.3585544262    1.1286378323    0.9747967303
H       -0.9322053925    2.0692059943   -0.8282634061
H       -1.6208593653   -0.9059927298    2.1956494640
H        6.8942278307    1.5442025950    0.6952407421
H        1.2376164099    1.0107163407   -1.3757342213
H        0.5473781668   -1.9689613157    1.6373528189
H        6.5982904070    0.3862379844   -1.4596839005
H        5.1393253858    1.3579735282    2.4389203707
H        3.2292093397   -4.1282151192   -1.4912182883
H        4.1987276296   -3.2341634958   -0.3200586891
H        5.1725671776   -0.7951543756   -2.9739481995
30   

C       -1.3801194552    0.6994243177    0.7226714393
C       -0.7156008234    0.9865058110   -0.4735327852
C       -0.8313258415   -0.2226475443    1.6188122787
C        6.0140233427    0.8807079796    0.6283113555
C        0.5047877718    0.3655113329   -0.7641132626
C        0.3874825990   -0.8443876030    1.3249172778
C        5.8099855072    0.3386072881   -0.6350697242
C        5.0565082926    0.6828922568    1.6152682334
C        1.0873620597   -0.5235980986    0.1491803092
C        3.6572194063   -0.5665734835    0.0614889492
C        4.6582668406   -0.3955419621   -0.9308401787
C        3.8859751369   -0.0311643450    1.3505951832
C        2.3549684202   -1.2225114471   -0.2563019269
C        4.1646869861   -2.2178569903   -2.4495716373
C        3.4601905987   -3.0482604298   -1.3754193802
N        2.2432681572   -2.3766341605   -0.8722238758
N        4.5568498113   -0.9211324417   -2.2205498016
O        4.4296366250   -2.6891042942   -3.5443679755
F        3.0061320200   -0.2024237442    2.3616637249
H       -2.3251465874    1.1804288194    0.9486988060
H       -1.1489751635    1.6852305887   -1.1800795976
H       -1.3533462749   -0.4632654995    2.5379187834
H        6.9150078332    1.4457905955    0.8433814948
H        1.0046955042    0.5782573691   -1.7029793169
H        0.7937463348   -1.5797270521    2.0106173099
H        6.5671905446    0.4850819048   -1.3966844725
H        5.2099739436    1.0890429251    2.6080058228
H        3.1839892469   -4.0102763432   -1.8160269211
H        4.1569817034   -3.2469679906   -0.5564038302
H        5.1320691216   -0.5552652536   -2.9683763431
30   

C       -1.3077798955    0.8420164016    0.6389431349
C       -0.7982656042    0.7669006802   -0.6590430664
C       -0.6296177553    0.2149434941    1.6866850750
C        6.0429135573    0.8023750767    0.7046312274
C        0.3906604434    0.0718642845   -0.9058593123
C        0.5605175585   -0.4796963764    1.4401540029
C        5.7402698265    0.4748070365   -0.6101025766
C        5.1945202220    0.3808551989    1.7194077893
C        1.0926369648   -0.5527874913    0.1381022851
C        3.6785600564   -0.6269425460    0.0971031487
C        4.5890347722   -0.2494624524   -0.9296595202
C        4.0294247648   -0.3357440653    1.4361794847
C        2.3643464633   -1.2594825517   -0.2413071938
C        4.1100488003   -1.8669687987   -2.6551963132
C        3.4585812632   -2.8528885080   -1.6866277535
N        2.2467277408   -2.2632074845   -1.0818285578
N        4.4141846027   -0.5819491050   -2.2749932327
O        4.3828383141   -2.1874880108   -3.8014088374
F        3.2907405744   -0.7621316127    2.4796289818
H       -2.2316165742    1.3761207045    0.8308243804
H       -1.3253391885    1.2439629658   -1.4775011346
H       -1.0332148321    0.2543331340    2.6921015542
H        6.9415244765    1.3645040185    0.9367211176
H        0.7736023831    0.0173559067   -1.9197161834
H        1.0206820293   -0.9973064779    2.2694098500
H        6.4229643822    0.7778113505   -1.3956362097
H        5.4347654142    0.6056054030    2.7517505897
H        3.1849432803   -3.7537341185   -2.2429279969
H        4.1794095123   -3.1414072515   -0.9162183655
H        4.9380562308   -0.0925361795   -2.9889015738
30   

C       -1.2602024317    0.9455794126    0.4801051258
C       -0.9236907276    0.4672003146   -0.7862948061
C       -0.4175812818    0.6855346585    1.5614278308
C        6.0082245327    0.6862491719    0.8467269180
C        0.2400330362   -0.2886128289   -0.9646328797
C        0.7501633708   -0.0653879804    1.3818280590
C        5.6622546961    0.5271018671   -0.4905994754
C        5.2234367868    0.0892071235    1.8277174850
C        1.0719711900   -0.6146682061    0.1226275039
C        3.6612515128   -0.7072596182    0.1432063242
C        4.5207372957   -0.1887820110   -0.8583570229
C        4.0693369885   -0.6227904966    1.4905858209
C        2.3452140741   -1.3322541737   -0.2156694625
C        4.0673755811   -1.6862151957   -2.6840679990
C        3.4953630881   -2.7765881834   -1.7721056738
N        2.2644755509   -2.2949886479   -1.1101764534
N        4.3145108655   -0.4137084177   -2.2206627542
O        4.3219519793   -1.9102167128   -3.8571392354
F        3.3961152260   -1.2623021224    2.4726195628
H       -2.1657916597    1.5249536294    0.6209112300
H       -1.5624184597    0.6830205959   -1.6352870859
H       -0.6670947278    1.0688181653    2.5443636136
H        6.8993712699    1.2425870595    1.1182480940
H        0.4847959334   -0.6306874321   -1.9650234393
H        1.3671180182   -0.2217902782    2.2520503072
H        6.3065967748    0.9457885070   -1.2550927124
H        5.5100157179    0.1655788561    2.8697731532
H        3.2599972101   -3.6516791692   -2.3842146789
H        4.2470938067   -3.0759004011   -1.0360307129
H        4.7948885043    0.1525905962   -2.9077433633
30   

C       -1.3096791777    0.9006038602    0.4458432431
C       -1.0935245857    0.2059455604   -0.7439739217
C       -0.3301258265    0.8868069222    1.4386584838
C        6.0083377243    0.6056891631    0.9305861707
C        0.0869787650   -0.5221218164   -0.9290982367
C        0.8533903006    0.1632719918    1.2519424126
C        5.6857024497    0.4977196693   -0.4184729132
C        5.1905452075   -0.0036254921    1.8775168494
C        1.0590044750   -0.6080423121    0.0866607032
C        3.6489236996   -0.7110058632    0.1371393470
C        4.5374619034   -0.1823737987   -0.8306478165
C        4.0275117695   -0.6766661233    1.4945660608
C        2.3335954269   -1.3137094197   -0.2598973565
C        4.0932459358   -1.6275077765   -2.6978163142
C        3.5139797805   -2.7388054258   -1.8138145210
N        2.2723901037   -2.2784928934   -1.1552014030
N        4.3515185979   -0.3696005349   -2.2009724948
O        4.3518426624   -1.8242623807   -3.8749237036
F        3.3034999626   -1.3187375932    2.4406462786
H       -2.2268227655    1.4603007834    0.5914320418
H       -1.8390260581    0.2331006027   -1.5306521229
H       -0.4826365242    1.4456875564    2.3550204004
H        6.9060688206    1.1325557420    1.2370180353
H        0.2247677057   -1.0291327406   -1.8784324905
H        1.5885611219    0.2215354215    2.0398297524
H        6.3538632630    0.9257863702   -1.1568958422
H        5.4566028800    0.0341541192    2.9271409515
H        3.2903994402   -3.6020432971   -2.4467869100
H        4.2584867270   -3.0505549754   -1.0756370587
H        4.8441994414    0.2104022229   -2.8676461698
30   

C       -1.3620052180    0.8207497449    0.4961336391
C       -1.2367006776   -0.0356013250   -0.5972073708
C       -0.2764089123    1.0086887127    1.3508959672
C        6.0106550709    0.5352733541    1.0121390767
C       -0.0368606442   -0.7195874896   -0.8227335962
C        0.9253490123    0.3281612516    1.1246982335
C        5.7278776646    0.4524758837   -0.3478994171
C        5.1428250768   -0.0550080347    1.9260689985
C        1.0542852004   -0.5929591113    0.0599327243
C        3.6412978568   -0.7031096428    0.1279889030
C        4.5739259648   -0.1887027854   -0.8046897834
C        3.9724701045   -0.6865755098    1.4983332488
C        2.3300522376   -1.2797451729   -0.3125517803
C        4.1430743616   -1.5920269132   -2.7064773763
C        3.5293424502   -2.7074522321   -1.8510216581
N        2.2796712971   -2.2449156434   -1.2085680026
N        4.4223647534   -0.3501849194   -2.1821407980
O        4.4198091433   -1.7740595758   -3.8818338197
F        3.1824405763   -1.2928846137    2.4154877668
H       -2.2929070617    1.3482118955    0.6716727040
H       -2.0691207190   -0.1691292220   -1.2788380955
H       -0.3606483883    1.6924107258    2.1880086641
H        6.9138386952    1.0306134784    1.3532205854
H        0.0181596904   -1.3590066137   -1.6974048419
H        1.7427128676    0.5478637207    1.7960317016
H        6.4313424140    0.8692863602   -1.0594940468
H        5.3727923441   -0.0321051914    2.9846630390
H        3.3088896826   -3.5581128358   -2.5018432113
H        4.2545969811   -3.0402155497   -1.1029847519
H        4.9432936997    0.2299924812   -2.8268868579
30   

C       -1.3917617007    0.7439475889    0.5834945858
C       -1.3362636520   -0.2425243080   -0.4005733282
C       -0.2303252327    1.0986614352    1.2687236523
C        6.0040528828    0.4593483835    1.0752703225
C       -0.1262386659   -0.8839998042   -0.6885068288
C        0.9807500443    0.4594308678    0.9810949916
C        5.7685261105    0.3948193740   -0.2948219353
C        5.0825989385   -0.1037131817    1.9528790214
C        1.0523946150   -0.5748946119    0.0188859514
C        3.6319643123   -0.6998571357    0.0949870440
C        4.6121914432   -0.2057167479   -0.7990011409
C        3.9088678760   -0.6934845281    1.4781721265
C        2.3251406760   -1.2411842249   -0.3933222778
C        4.1908294495   -1.5586830245   -2.7415815901
C        3.5278652283   -2.6739817223   -1.9239460705
N        2.2747894326   -2.1991516754   -1.2967854263
N        4.5005352178   -0.3396388614   -2.1830687631
O        4.4887326872   -1.7236579449   -3.9142633564
F        3.0553013507   -1.2588755988    2.3638922553
H       -2.3297876818    1.2403004024    0.8056169977
H       -2.2320573031   -0.5114137275   -0.9488452907
H       -0.2637584760    1.8797572968    2.0197799705
H        6.9096220940    0.9227079678    1.4530331838
H       -0.1309264142   -1.6345340375   -1.4717642836
H        1.8556295655    0.8049077630    1.5146389465
H        6.5098793596    0.7953428156   -0.9766870841
H        5.2708255006   -0.0897906654    3.0198813021
H        3.3026121404   -3.5051035299   -2.5979519223
H        4.2277274371   -3.0405970601   -1.1676630056
H        5.0567930950    0.2364972630   -2.8014571368
30   

C       -1.3950950996    0.6789577368    0.6857258152
C       -1.3811526428   -0.4172727560   -0.1769321978
C       -0.1924911348    1.1777287653    1.1861938416
C        5.9928361567    0.3837789424    1.1446314761
C       -0.1686602618   -1.0188420997   -0.5330618207
C        1.0204773009    0.5773723811    0.8313007366
C        5.8116075864    0.3268730178   -0.2340057363
C        5.0151579623   -0.1419465886    1.9833113987
C        1.0564389666   -0.5485410046   -0.0233314457
C        3.6261316705   -0.6973844874    0.0657491627
C        4.6567603769   -0.2328399425   -0.7866629529
C        3.8420926223   -0.6906503136    1.4607233053
C        2.3243245580   -1.1945799769   -0.4736934371
C        4.2453351639   -1.5374793946   -2.7682374509
C        3.5222393857   -2.6439504102   -1.9913294088
N        2.2686402817   -2.1462609666   -1.3829456240
N        4.5912469618   -0.3450679307   -2.1756245994
O        4.5671050707   -1.6894322001   -3.9363360977
F        2.9294493433   -1.2133408962    2.3128703051
H       -2.3349492741    1.1454747169    0.9588806864
H       -2.3118733192   -0.8036066380   -0.5767056960
H       -0.1969007826    2.0387096885    1.8449578671
H        6.8976994419    0.8152719409    1.5599720393
H       -0.2036097820   -1.8641264219   -1.2121514181
H        1.9286820224    1.0220917071    1.2179363571
H        6.5929970911    0.7036063672   -0.8839761483
H        5.1572389779   -0.1296881595    3.0574778592
H        3.2882992201   -3.4531990864   -2.6886056269
H        4.1900942932   -3.0494452169   -1.2260878470
H        5.1880126164    0.2199523536   -2.7659444077
