18   
Generated by ForceBalance from scan.xyz: Frame 1 of 7
C        0.8232804636    0.0736695930    2.5523573045
C        0.2970680243    0.9698954127    3.4359757626
C       -0.1944618952    0.1959305148    1.4768056447
C        0.6937134966   -1.3613280576   -0.3635438952
C       -1.1069118901    0.3365895715   -0.9472088962
C        0.1875608450    1.0720449996   -0.9299257902
C       -0.0209182821   -0.1150267018    0.0344450676
N       -1.2724661369    0.8461035131    1.8985081877
O        0.9271912204   -1.6857623170   -1.5139747355
O       -1.0601570119    0.8705516968    3.3163934131
O        1.0658741926   -2.1328448822    0.6925988011
H        1.8526542492   -0.2259518585    2.4138131937
H        0.6415914671    1.3110421030    4.4092935217
H       -1.9754950273    0.7968310647   -0.4907363656
H       -1.2933137739   -0.3375738248   -1.7755910494
H        0.8876259790    0.9022427368   -1.7410401094
H        0.2224790127    2.0465358277   -0.4539657027
H        1.5010460259   -2.9184564896    0.3083722716
18   
Generated by ForceBalance from scan.xyz: Frame 2 of 7
C        0.8216128628    0.1223112624    2.5239842625
C        0.2809629086    0.9112355390    3.4955496256
C       -0.1677269682    0.2358705087    1.4675701513
C        0.6918697328   -1.3501598353   -0.3655184663
C       -1.1200146883    0.3348246127   -0.9446867010
C        0.1733563532    1.0730829592   -0.9575323457
C       -0.0180366223   -0.0992710069    0.0264611466
N       -1.2546575634    0.8575492464    1.8944614072
O        0.9059728631   -1.6902739161   -1.5153513366
O       -1.0586537629    0.9852687189    3.2894000520
O        1.0854979384   -2.1067925671    0.6937170950
H        1.8403705165   -0.2231104426    2.4274877782
H        0.6034754775    1.1653890548    4.4995552320
H       -1.9827801912    0.8005692451   -0.4831731192
H       -1.3166912580   -0.3517064756   -1.7604182060
H        0.8608773623    0.8932385838   -1.7770935681
H        0.2128023709    2.0548302697   -0.4971622201
H        1.5153517917   -2.8959218575    0.3107256064
18   
Generated by ForceBalance from scan.xyz: Frame 3 of 7
C        0.8272160059    0.1668509528    2.5031090607
C        0.2505373690    0.8381757801    3.5371275440
C       -0.1543504849    0.2633706679    1.4587249842
C        0.6901175960   -1.3416357040   -0.3678656732
C       -1.1296224630    0.3344293810   -0.9448909210
C        0.1618854680    1.0752466104   -0.9764720086
C       -0.0172769252   -0.0878294646    0.0199367752
N       -1.2543837249    0.8509555687    1.8914286779
O        0.8959974586   -1.6905290535   -1.5167038072
O       -1.0530643097    1.0712861334    3.2624100776
O        1.0923146907   -2.0910960819    0.6932395339
H        1.8350098582   -0.2134451781    2.4315517412
H        0.5573016780    1.0465258569    4.5545596304
H       -1.9890863723    0.8031235772   -0.4804886678
H       -1.3317920275   -0.3605184792   -1.7520787310
H        0.8418894861    0.8891108815   -1.8008083761
H        0.2030685939    2.0615737469   -0.5261961618
H        1.5188788569   -2.8824861434    0.3112384900
18   
Generated by ForceBalance from scan.xyz: Frame 4 of 7
C        0.8458487090    0.2077206366    2.4961427895
C        0.2283977198    0.7648733460    3.5723685784
C       -0.1394194701    0.2924693597    1.4593625896
C        0.6893226452   -1.3313453333   -0.3616299255
C       -1.1393298181    0.3354444854   -0.9339936373
C        0.1494874647    1.0789135107   -0.9855730645
C       -0.0157795448   -0.0753708653    0.0237843206
N       -1.2479061433    0.8580134511    1.8988662500
O        0.8850563855   -1.6867112319   -1.5103757869
O       -1.0201800602    1.1612702321    3.2456862376
O        1.1009467476   -2.0755188256    0.6996878150
H        1.8363278423   -0.2169157484    2.4379629005
H        0.5268330581    0.9389154702    4.5979599233
H       -1.9952879246    0.8062722544   -0.4654811181
H       -1.3474227995   -0.3681854866   -1.7320651246
H        0.8219768943    0.8865862838   -1.8145909710
H        0.1923907440    2.0694668081   -0.5449320387
H        1.5235435416   -2.8687109094    0.3169908769
18   
Generated by ForceBalance from scan.xyz: Frame 5 of 7
C        0.8755756715    0.2452424133    2.4898567065
C        0.2135758372    0.6972821234    3.5900161551
C       -0.1156819552    0.3228927826    1.4531838819
C        0.6994442507   -1.3269698439   -0.3543327281
C       -1.1409671976    0.3250224026   -0.9286706246
C        0.1432941147    1.0731735807   -1.0036364896
C       -0.0054326740   -0.0683473318    0.0236810941
N       -1.2277921044    0.8792550339    1.8983013271
O        0.8860189849   -1.6924682702   -1.5014662454
O       -0.9575220902    1.2633169047    3.2203415116
O        1.1206952576   -2.0613528790    0.7100796394
H        1.8418745327   -0.2335601484    2.4441801534
H        0.4969558041    0.8430296826    4.6248199106
H       -1.9941641273    0.7985118420   -0.4579787059
H       -1.3532719252   -0.3911213619   -1.7143781560
H        0.8083384631    0.8717442977   -1.8364612796
H        0.1861639500    2.0697833724   -0.5770156380
H        1.5406650370   -2.8572716372    0.3301096192
18   
Generated by ForceBalance from scan.xyz: Frame 6 of 7
C        0.9070889133    0.2858183510    2.4891415978
C        0.1842888695    0.6297018918    3.5932175066
C       -0.1003880308    0.3516198705    1.4463729400
C        0.7078181751   -1.3226756995   -0.3459924435
C       -1.1453758717    0.3140271152   -0.9235078733
C        0.1336548752    1.0676532274   -1.0188599594
C        0.0008395605   -0.0624842676    0.0243216417
N       -1.2232055051    0.8891846434    1.8986629614
O        0.8925809649   -1.6973805515   -1.4904354503
O       -0.8923362946    1.3522434485    3.1923795237
O        1.1313588356   -2.0494120899    0.7228192688
H        1.8496665265   -0.2393627277    2.4461933015
H        0.4454719621    0.7391174124    4.6400038297
H       -1.9968418899    0.7889339817   -0.4511818136
H       -1.3603081007   -0.4135422580   -1.6978826664
H        0.7936811704    0.8589097552   -1.8538346738
H        0.1743381300    2.0696728538   -0.6049666878
H        1.5507187438   -2.8478066663    0.3472958488
18   
Generated by ForceBalance from scan.xyz: Frame 7 of 7
C        0.9543908917    0.3283574877    2.4945097704
C        0.1578017720    0.5664554982    3.5768994448
C       -0.0852109646    0.3909285192    1.4357816370
C        0.7174931076   -1.3147787594   -0.3346119365
C       -1.1513586887    0.3009505430   -0.9200060286
C        0.1206497683    1.0619264739   -1.0389598482
C        0.0064755389   -0.0530693992    0.0242647763
N       -1.2192895318    0.9103322233    1.8975612308
O        0.9032964287   -1.6995766731   -1.4754259056
O       -0.8023056336    1.4432638664    3.1598967027
O        1.1397431213   -2.0326476938    0.7408632149
H        1.8646982119   -0.2516532180    2.4422871761
H        0.3754722962    0.6067266352    4.6410571777
H       -2.0018707066    0.7775348635   -0.4476766457
H       -1.3677118902   -0.4412090127   -1.6799912185
H        0.7760920254    0.8435531657   -1.8750714676
H        0.1570620990    2.0708170085   -0.6417795155
H        1.5596387471   -2.8340998654    0.3723883902
