27   

C       -4.3466850044    0.0168866046    1.5926939015
C       -3.0710161919   -1.4971825999    0.2018905560
C       -3.1763789310    0.3955838274    2.2545805430
C       -1.8978746623   -1.0980821505    0.8542865223
C       -4.3105141943   -0.9378493902    0.5599144418
C       -1.9386936362   -0.1571713694    1.8984315764
C       -0.6822223865    1.5227372301    3.9208619843
C        0.8160295139    0.7273368948    1.6862158453
C       -5.5347088794   -1.3838027287   -0.1859329166
C       -6.8028352728   -0.5595854737   -0.0601155550
C       -0.1348217415   -1.2072442130    3.5205089767
O       -5.4985952007   -2.3234094098   -0.9709833968
S       -0.4120426005    0.3944082606    2.7402339830
H       -5.2794978690    0.4749266043    1.9011105772
H       -3.0108497599   -2.2314519977   -0.5958705239
H       -3.2299614070    1.1397354539    3.0439438798
H       -0.9490704691   -1.5215079079    0.5398368332
H       -0.0808731714    2.4214280345    3.9505427661
H       -1.4395104559    1.3622642087    4.6758420058
H        1.4395363433    1.5959095857    1.8518754500
H        0.9871651154    0.1038732099    0.8200395378
H       -6.5792078234    0.5010676812   -0.2022297101
H       -7.2516624496   -0.7141378668    0.9244448887
H       -7.5205259366   -0.8678882462   -0.8259665378
H        0.7442318683   -1.1300914131    4.1633823829
H       -1.0061425389   -1.4708251980    4.1228115592
H        0.0397282687   -1.9644297656    2.7551711121
27   

C       -4.3784578395   -0.0506936608    1.6847855744
C       -3.1022815143   -1.5161853936    0.2418563896
C       -3.2011381679    0.3481782655    2.3222165334
C       -1.9227311228   -1.0965816029    0.8692749597
C       -4.3439849782   -0.9957302678    0.6453361776
C       -1.9597950335   -0.1707535309    1.9275433003
C       -0.6920371502    1.5102524907    3.9417107113
C        0.7644519497    0.7871517402    1.6556775124
C       -5.5745229927   -1.4432099856   -0.0897748728
C       -6.7410593191   -0.4778210177   -0.1889649791
C       -0.0863770922   -1.1989394846    3.4844855201
O       -5.5726258842   -2.4605619866   -0.7718216379
S       -0.4253201925    0.4066252356    2.7372534435
H       -5.3179824356    0.3786499147    2.0144480161
H       -3.0479697658   -2.2360689213   -0.5693283305
H       -3.2521436990    1.0817007322    3.1216340431
H       -0.9722023717   -1.4912842747    0.5241708088
H       -0.1135565697    2.4239048443    3.9688286227
H       -1.4237537323    1.3187313469    4.7144714609
H        1.3693989455    1.6694413074    1.8176236791
H        0.9283783590    0.1807457838    0.7761038007
H       -6.3762828474    0.5405336423   -0.3478666503
H       -7.3338849174   -0.5160201761    0.7283958830
H       -7.3787907525   -0.7541699309   -1.0336399601
H        0.8074326769   -1.1087854156    4.1049345237
H       -0.9341437784   -1.4941871723    4.1054322828
H        0.0868055183   -1.9397407618    2.7029711691
27   

C       -4.3849184293   -0.0852899075    1.7515603637
C       -3.0968796649   -1.5019768800    0.2700915651
C       -3.2080530794    0.3295734246    2.3798641183
C       -1.9180910915   -1.0662081582    0.8877450572
C       -4.3422949139   -1.0194268138    0.7050634066
C       -1.9611249476   -0.1583811704    1.9618222783
C       -0.7016846136    1.5141271922    3.9882135314
C        0.7392274238    0.8591698421    1.6719780538
C       -5.5737723868   -1.4689099375   -0.0301289147
C       -6.6083132631   -0.4171163194   -0.3813399113
C       -0.0473570644   -1.1743501391    3.4774498083
O       -5.6132139748   -2.5609414431   -0.5828738580
S       -0.4283524406    0.4363686887    2.7620835965
H       -5.3325558483    0.3183610861    2.0910118566
H       -3.0426653621   -2.2070026099   -0.5540119334
H       -3.2638299990    1.0509649692    3.1899311234
H       -0.9639443035   -1.4341075935    0.5235420232
H       -0.1415085457    2.4388209247    4.0235779471
H       -1.4191061029    1.2945474257    4.7669110799
H        1.3281758023    1.7508809207    1.8411045321
H        0.9043922147    0.2705791998    0.7806249076
H       -6.1159867373    0.5286349873   -0.6233805946
H       -7.2870546082   -0.2681078693    0.4620152353
H       -7.1881591825   -0.7419971586   -1.2500369658
H        0.8526614102   -1.0766219467    4.0876970837
H       -0.8806836629   -1.4971383692    4.1042343063
H        0.1301596832   -1.8984028865    2.6813443491
27   

C       -4.4105422495   -0.1214235373    1.8541966106
C       -3.1494055623   -1.4691470829    0.2894700850
C       -3.2208934022    0.3013025549    2.4521928816
C       -1.9576624178   -1.0262191212    0.8767643595
C       -4.3862697554   -1.0286118448    0.7852454381
C       -1.9802773492   -0.1502052528    1.9778264796
C       -0.6823817165    1.4934301714    4.0037551940
C        0.6951241417    0.9142388928    1.6290989402
C       -5.6419919912   -1.4758773783    0.0858991540
C       -6.5306625868   -0.3907090430   -0.4878215952
C       -0.0071171417   -1.1723655568    3.4086222762
O       -5.7590293289   -2.6269787094   -0.3137942428
S       -0.4321466704    0.4491391600    2.7442008765
H       -5.3556162575    0.2518052258    2.2336635331
H       -3.1153945550   -2.1510346890   -0.5547750389
H       -3.2624612635    0.9992090628    3.2833952496
H       -1.0099467513   -1.3643970114    0.4694893117
H       -0.1342530010    2.4250798346    4.0445164600
H       -1.3722542917    1.2448990661    4.7985059320
H        1.2765466792    1.8102596405    1.8014494482
H        0.8416150987    0.3486181031    0.7198223586
H       -5.9201693565    0.4377954705   -0.8568999109
H       -7.2107951677   -0.0220378474    0.2837832237
H       -7.1190836522   -0.7910440445   -1.3183156446
H        0.9103928430   -1.0764452676    3.9925329414
H       -0.8157928962   -1.5214672081    4.0533836950
H        0.1543888722   -1.8750667113    2.5902766122
27   

C       -4.4151234737   -0.1211026120    1.9776217104
C       -3.2100508022   -1.4342683336    0.3439659231
C       -3.2063048275    0.2916560498    2.5426693374
C       -1.9982825584   -1.0020579427    0.8979436809
C       -4.4280687429   -1.0032668278    0.8886396229
C       -1.9827509445   -0.1479027586    2.0162280112
C       -0.6179243735    1.4537354651    4.0313364040
C        0.6764991294    0.9301380353    1.5978178826
C       -5.7204695383   -1.4390049440    0.2419886151
C       -6.4470653211   -0.3930635208   -0.5772041361
C        0.0406789747   -1.1971499752    3.3547763731
O       -5.9621842272   -2.6256061283    0.0670880845
S       -0.4097587078    0.4375926171    2.7414990207
H       -5.3481153593    0.2394748606    2.3973838383
H       -3.2071002363   -2.1024539659   -0.5115055556
H       -3.2201742227    0.9714316452    3.3896731940
H       -1.0650524854   -1.3323088191    0.4525285323
H       -0.0713881843    2.3862660612    4.0729668110
H       -1.2785620465    1.1856100850    4.8443889443
H        1.2610903210    1.8243293146    1.7689938565
H        0.7925997283    0.3844976516    0.6721241841
H       -5.7267549796    0.2720027164   -1.0611315387
H       -7.1000694874    0.1959031002    0.0713743616
H       -7.0531739829   -0.8773458191   -1.3480969664
H        0.9770989017   -1.1117088472    3.9095685355
H       -0.7451291256   -1.5627536929    4.0184328277
H        0.1759579746   -1.8810490142    2.5160300962
27   

C       -4.4217547217   -0.1470276540    2.0828259630
C       -3.2555117368   -1.3273542539    0.3272788027
C       -3.2017227961    0.2326419509    2.6460229257
C       -2.0314110775   -0.9311507050    0.8823162313
C       -4.4606999716   -0.9138963362    0.9108675281
C       -1.9904025159   -0.1516059035    2.0529529766
C       -0.5787125003    1.3685528783    4.1000677247
C        0.6611951033    0.9383995531    1.6197027256
C       -5.7796197262   -1.3516149503    0.3156984732
C       -6.3687779973   -0.4433651550   -0.7417305889
C        0.0557374003   -1.2554816972    3.3040371116
O       -6.4416241736   -2.2483470515    0.8188421664
S       -0.4015118215    0.4036922248    2.7671706201
H       -5.3484270542    0.1546861792    2.5600602967
H       -3.2657141147   -1.9435731093   -0.5655433599
H       -3.1991597005    0.8418208786    3.5451401856
H       -1.1073831218   -1.2301492176    0.3973376172
H       -0.0301105588    2.2985354149    4.1652923856
H       -1.2219314023    1.0704662200    4.9166159195
H        1.2497365823    1.8256719562    1.8122592719
H        0.7585709796    0.4281007844    0.6720447182
H       -5.8855083080   -0.6347379584   -1.7030452138
H       -6.2152290911    0.6031286717   -0.4650738223
H       -7.4420817138   -0.6305988273   -0.8373226842
H        1.0057071194   -1.1956369038    3.8387639617
H       -0.7156839877   -1.6436599941    3.9717826140
H        0.1666588604   -1.9058370880    2.4355880027
27   

C       -4.4362189586   -0.1281473236    2.1307029742
C       -3.2957234790   -1.2187368276    0.3057521522
C       -3.2098262536    0.2365597330    2.6890426287
C       -2.0642152668   -0.8386407480    0.8562982056
C       -4.4952186106   -0.8308238447    0.9190062281
C       -2.0070284549   -0.1098817590    2.0580330699
C       -0.5672010808    1.3429315372    4.1361418690
C        0.6412972289    0.9922893103    1.6273256740
C       -5.8240149354   -1.2863909270    0.3672960829
C       -6.3018510717   -0.6052973810   -0.8974944316
C        0.0523934501   -1.2528223323    3.2466426429
O       -6.6229490752   -1.8839492105    1.0756081762
S       -0.4093945271    0.4232273446    2.7694107198
H       -5.3567875687    0.1352876286    2.6420033192
H       -3.3141962445   -1.8016287119   -0.6088622584
H       -3.1968779275    0.8017523973    3.6163099885
H       -1.1466206979   -1.1125886973    0.3449969409
H       -0.0137619191    2.2679095216    4.2265207048
H       -1.2030617606    1.0206439735    4.9492516618
H        1.2357989748    1.8703282560    1.8425776352
H        0.7249884540    0.5141471637    0.6617982572
H       -5.8698146544   -1.1008518772   -1.7702062600
H       -5.9994088057    0.4453154842   -0.8942018482
H       -7.3924280329   -0.6582095115   -0.9610283720
H        1.0096272284   -1.2112705401    3.7700290299
H       -0.7104854514   -1.6610372162    3.9122767834
H        0.1501141165   -1.8751378164    2.3563513195
27   

C       -4.4453023642   -0.0851220259    2.1575612413
C       -3.3335113577   -1.1196901758    0.2851788194
C       -3.2110986316    0.2601033377    2.7103290403
C       -2.0936535525   -0.7585930325    0.8302865841
C       -4.5260980413   -0.7493738575    0.9242020106
C       -2.0180427348   -0.0682566996    2.0530834413
C       -0.5468235110    1.3132545925    4.1585795863
C        0.6264631420    1.0443817738    1.6230355078
C       -5.8642697420   -1.1891262629    0.3924812833
C       -6.2258831995   -0.7560313169   -1.0135567274
C        0.0562004628   -1.2513197843    3.1754711589
O       -6.7458259027   -1.5670718235    1.1529461462
S       -0.4101213980    0.4397989665    2.7596515485
H       -5.3571248548    0.1651716962    2.6911588672
H       -3.3617694956   -1.6749471228   -0.6460958751
H       -3.1851453633    0.7961285890    3.6545037621
H       -1.1835964247   -1.0179122495    0.2983034683
H        0.0109702769    2.2329306599    4.2730196333
H       -1.1735182858    0.9658539929    4.9684705320
H        1.2266827014    1.9129609361    1.8597504550
H        0.6945295003    0.5996122067    0.6404945634
H       -5.8024694518   -1.4557911325   -1.7379975103
H       -5.8350672385    0.2462343710   -1.2084211422
H       -7.3132247911   -0.7383984959   -1.1303060745
H        1.0207535337   -1.2274407863    3.6863985856
H       -0.6976373587   -1.6802559877    3.8383685065
H        0.1407088350   -1.8444245918    2.2641680443
27   

C       -4.4307279172   -0.0773150079    2.2346576394
C       -3.3602632500   -1.0355993572    0.3005023671
C       -3.1857327231    0.2549005035    2.7701770146
C       -2.1094438637   -0.6875398003    0.8292740934
C       -4.5415354679   -0.7020477168    0.9814922049
C       -2.0074537200   -0.0433996845    2.0746095487
C       -0.4931249518    1.2763956360    4.1897913629
C        0.6284351941    1.0832156588    1.6236966002
C       -5.8945311045   -1.1144417613    0.4730791262
C       -6.1818128733   -0.9302841964   -1.0044203437
C        0.0879111656   -1.2570011212    3.1185019182
O       -6.8223385187   -1.3151178902    1.2464196632
S       -0.3856901434    0.4456860896    2.7625669538
H       -5.3286094434    0.1550666458    2.7993762136
H       -3.4024564456   -1.5542438275   -0.6509648432
H       -3.1405653143    0.7583967061    3.7313812014
H       -1.2110195761   -0.9207078779    0.2662874362
H        0.0681150395    2.1917564637    4.3207784591
H       -1.1042093375    0.9055112998    5.0011903385
H        1.2343260897    1.9439623782    1.8741960358
H        0.6762936582    0.6680737101    0.6271218632
H       -5.8133958600   -1.7929584121   -1.5648642637
H       -5.6945349145   -0.0229524052   -1.3713837589
H       -7.2598962979   -0.8378047426   -1.1644360913
H        1.0625808240   -1.2483688287    3.6103535455
H       -0.6526521162   -1.7053035040    3.7835562300
H        0.1533466314   -1.8226934576    2.1883910665
27   

C       -4.2256803111    0.6983927543    1.5388061735
C       -3.6042148101   -1.5195377934    0.8303487125
C       -2.9530132777    0.8927084028    2.0769506821
C       -2.3197746628   -1.3182281088    1.3548813899
C       -4.5683908196   -0.5000482721    0.8896741957
C       -1.9815932367   -0.1120511660    1.9922210404
C       -0.0902513434    1.6874682575    3.2944059493
C        0.8882317834   -0.3543092870    1.6353775385
C       -5.9662549242   -0.6944620598    0.3764169724
C       -6.1806562670   -1.6567428589   -0.7774529522
C       -0.5198396229   -0.9982723029    4.0020964323
O       -6.8776155176    0.0460372669    0.7236792105
S       -0.3012911121    0.1769234792    2.6524562877
H       -4.9604948645    1.4933861572    1.6238337595
H       -3.8309978961   -2.4734222826    0.3675238021
H       -2.7191507778    1.8402335139    2.5534468223
H       -1.5795708857   -2.1071578333    1.2644088093
H        0.7802150020    2.2689786414    3.0220799201
H       -0.8038708320    2.0940645601    3.9978242546
H        1.7779314317    0.2461722383    1.4989739836
H        0.7780704697   -1.2785553828    1.0863275718
H       -6.2365536427   -2.6814275137   -0.4015327417
H       -5.3613006553   -1.5732282827   -1.4964988381
H       -7.1172311571   -1.4167439236   -1.2891226318
H        0.3795709019   -0.9838324360    4.6208429489
H       -1.3811664120   -0.7005640458    4.6030555334
H       -0.6680531247   -2.0000711097    3.5974098140
27   

C       -4.2163658611    0.7355180207    1.5243792494
C       -3.5870721371   -1.4616152696    0.7584611866
C       -2.9483498410    0.9157604002    2.0778949653
C       -2.3071027274   -1.2727805127    1.2986105720
C       -4.5563186571   -0.4484044176    0.8468584952
C       -1.9759287713   -0.0858876470    1.9742440156
C       -0.0994124240    1.6737528445    3.3510124129
C        0.8977760874   -0.3091258727    1.6326679252
C       -5.9440993839   -0.6186593543    0.2998003450
C       -6.2119255793   -1.7638552265   -0.6597871918
C       -0.5269625591   -1.0346076651    3.9648411423
O       -6.8243166364    0.2017546924    0.5274443551
S       -0.3015555847    0.1853735494    2.6566630694
H       -4.9493880483    1.5308887894    1.6207921815
H       -3.7976901330   -2.4025608518    0.2634843386
H       -2.7183195426    1.8509054502    2.5800663008
H       -1.5638656678   -2.0564128381    1.1888694637
H        0.7725849030    2.2653865924    3.1068476392
H       -0.8206817856    2.0554724412    4.0605412358
H        1.7877002281    0.2968152370    1.5248574466
H        0.7937208339   -1.2138778716    1.0509232919
H       -6.2238465863   -2.7117891858   -0.1157635182
H       -5.4447463183   -1.7920807968   -1.4381331786
H       -7.1850749839   -1.6222767395   -1.1389786179
H        0.3674780101   -1.0379376621    4.5909071617
H       -1.3939822777   -0.7595732240    4.5683973877
H       -0.6685348789   -2.0229099153    3.5260451720
27   

C       -4.2219986294    0.7697604862    1.4976024784
C       -3.5737315108   -1.4015995069    0.6760367570
C       -2.9611067300    0.9397368510    2.0703573641
C       -2.3008851883   -1.2223073028    1.2360073163
C       -4.5521734655   -0.3994649591    0.7899398255
C       -1.9832688661   -0.0546166803    1.9502097488
C       -0.1273800008    1.6759510138    3.3908167979
C        0.8949421097   -0.2585593332    1.6324674699
C       -5.9256826855   -0.5466895307    0.2006526628
C       -6.2678760456   -1.8241180250   -0.5443273111
C       -0.5507835252   -1.0486938770    3.9300882356
O       -6.7690214817    0.3334778595    0.3181741338
S       -0.3168427020    0.2053659027    2.6561691563
H       -4.9569743754    1.5622122855    1.6028083124
H       -3.7666475601   -2.3247584470    0.1422409833
H       -2.7400171618    1.8625684130    2.5986468401
H       -1.5511703255   -1.9970301012    1.1084089373
H        0.7450795183    2.2764869625    3.1712210089
H       -0.8575598962    2.0371293442    4.1019568901
H        1.7837172405    0.3529839954    1.5496600178
H        0.8004358693   -1.1483293223    1.0264921662
H       -6.1711443745   -2.6853328109    0.1218621203
H       -5.6069226545   -1.9440491777   -1.4067516740
H       -7.3005291863   -1.7757041698   -0.9021209084
H        0.3377793749   -1.0657137511    4.5642543123
H       -1.4242486746   -0.7917852099    4.5323113840
H       -0.6852257641   -2.0256222196    3.4643885671
27   

C       -4.1877728033    0.7819161828    1.4491592473
C       -3.5194672300   -1.3742824164    0.6032284418
C       -2.9387682800    0.9435389363    2.0496772347
C       -2.2578181535   -1.2026765368    1.1902656692
C       -4.5042528527   -0.3794008216    0.7230724694
C       -1.9572889557   -0.0478068885    1.9325753892
C       -0.1412506964    1.6534586133    3.4561357912
C        0.9274423218   -0.2169216430    1.6568899189
C       -5.8567386907   -0.5116397673    0.0845874935
C       -6.2946459247   -1.8770409638   -0.4136132894
C       -0.5470707353   -1.0898033052    3.9055190651
O       -6.6500751185    0.4211458393    0.0735987286
S       -0.3051381146    0.2044571208    2.6739912125
H       -4.9243611812    1.5737526840    1.5474888630
H       -3.7002681921   -2.2819719248    0.0391250312
H       -2.7285851194    1.8586539150    2.5956043012
H       -1.5026714908   -1.9715383015    1.0593894806
H        0.7292700389    2.2679167493    3.2698947217
H       -0.8868499757    1.9864900696    4.1650292527
H        1.8120634860    0.4042409173    1.6081446712
H        0.8500753923   -1.0872727957    1.0210002230
H       -6.1007133822   -2.6378883135    0.3469728906
H       -5.7599415328   -2.1271389315   -1.3335866939
H       -7.3680004472   -1.8648309131   -0.6244514438
H        0.3306268250   -1.1163293353    4.5543203127
H       -1.4335705098   -0.8604078508    4.4997251421
H       -0.6622389489   -2.0537219140    3.4086367171
27   

C       -4.2089899212    0.7626193814    1.4388899552
C       -3.5019315319   -1.3574016490    0.5359401149
C       -2.9694630383    0.9212300740    2.0599199555
C       -2.2496768128   -1.1889442189    1.1432955767
C       -4.5035223185   -0.3835481669    0.6811245663
C       -1.9741218462   -0.0545246566    1.9260838611
C       -0.1998864799    1.6201707320    3.5271152471
C        0.9165358530   -0.1764598012    1.6822419581
C       -5.8368665386   -0.5055728006    0.0008454661
C       -6.3846560537   -1.8965271660   -0.2626681008
C       -0.5735213947   -1.1407706626    3.8819135821
O       -6.5698529098    0.4660442419   -0.1333334554
S       -0.3346377571    0.1957484724    2.6957815073
H       -4.9555872083    1.5439543852    1.5452440654
H       -3.6710576322   -2.2433987633   -0.0657380071
H       -2.7766288589    1.8230050590    2.6337406974
H       -1.4821935144   -1.9423334677    0.9953476432
H        0.6653870737    2.2508612272    3.3735111094
H       -0.9595042749    1.9208627513    4.2355645427
H        1.7939852686    0.4564745173    1.6664523302
H        0.8583449461   -1.0256629313    1.0164084386
H       -6.1467429103   -2.5616243798    0.5716990109
H       -5.9550437668   -2.2959248806   -1.1848633819
H       -7.4721999372   -1.8506176706   -0.3710095004
H        0.2966942730   -1.1765911866    4.5402782901
H       -1.4700716406   -0.9424978438    4.4722024973
H       -0.6695075578   -2.0895270270    3.3528132498
27   

C       -4.1941905169    0.7824076350    1.3855674644
C       -3.4455602006   -1.3090920752    0.4516645659
C       -2.9676677671    0.9425081220    2.0318519348
C       -2.2056904703   -1.1391414144    1.0833233691
C       -4.4628448900   -0.3540081309    0.6051976206
C       -1.9583655716   -0.0189473275    1.8959048889
C       -0.2395927979    1.6346511344    3.5776211859
C        0.9378512923   -0.0806871236    1.6941465199
C       -5.7763609643   -0.4697080041   -0.1167952431
C       -6.4578904304   -1.8245601312   -0.1369137747
C       -0.5654359606   -1.1419651278    3.8385922088
O       -6.4206360801    0.5290527984   -0.4104314577
S       -0.3355191692    0.2358280954    2.6987560446
H       -4.9512485484    1.5540794585    1.4880242175
H       -3.6005801889   -2.1799918532   -0.1757248936
H       -2.7947271568    1.8353486949    2.6256677685
H       -1.4259383083   -1.8787751749    0.9303333588
H        0.6168718134    2.2846688147    3.4592648702
H       -1.0162444501    1.8992310922    4.2819965508
H        1.8044445080    0.5669140928    1.7140654356
H        0.9041919196   -0.9070281373    0.9984911957
H       -6.2853704021   -2.3459753734    0.8083148556
H       -6.0648232418   -2.4253160670   -0.9607324505
H       -7.5353891459   -1.6964117033   -0.2748436315
H        0.2956088720   -1.1816512341    4.5087012693
H       -1.4742738760   -0.9798521265    4.4210344143
H       -0.6344643324   -2.0752714240    3.2787363629
27   

C       -4.1735302118    0.7223208802    1.3501777606
C       -3.3570585118   -1.3266086806    0.3753639737
C       -2.9627722519    0.8938210836    2.0232278223
C       -2.1331864344   -1.1443916029    1.0339712224
C       -4.3983977144   -0.4013977464    0.5408214817
C       -1.9285794953   -0.0410323525    1.8816083938
C       -0.2821379227    1.6021605971    3.6448829591
C        0.9727412172   -0.0284123546    1.7362316628
C       -5.6904743889   -0.5369377405   -0.2206793346
C       -6.4898002691   -1.8063875157   -0.0059985335
C       -0.5451081037   -1.1869094701    3.8178146814
O       -6.2443477068    0.4482473525   -0.6902273722
S       -0.3277327836    0.2288230193    2.7228181725
H       -4.9513657610    1.4729567669    1.4518335446
H       -3.4843790341   -2.1812970111   -0.2801812537
H       -2.8207629782    1.7750900385    2.6420042407
H       -1.3327463609   -1.8602603332    0.8749015440
H        0.5619924488    2.2738053766    3.5648855357
H       -1.0794904361    1.8284576337    4.3393748375
H        1.8243525094    0.6364833987    1.7947728768
H        0.9715016059   -0.8327579674    1.0144464169
H       -6.3821090159   -2.1469417124    1.0271931978
H       -6.1340549931   -2.5869685963   -0.6827525639
H       -7.5486076822   -1.6185463729   -0.2059446274
H        0.3038154149   -1.2253803903    4.5032866957
H       -1.4685507538   -1.0639935939    4.3866833291
H       -0.5802720219   -2.1048399126    3.2300650235
27   

C       -4.1780631210    0.6875585624    1.3079328853
C       -3.3027936965   -1.3228581968    0.3001728804
C       -2.9805286793    0.8693307265    2.0022557924
C       -2.0924058461   -1.1290109870    0.9796975238
C       -4.3627136529   -0.4216210022    0.4710180611
C       -1.9241400345   -0.0404066887    1.8546796731
C       -0.3440938135    1.5877732300    3.6914639609
C        0.9779771002    0.0544907320    1.7482427324
C       -5.6446736539   -0.5849912032   -0.3096826779
C       -6.5731713647   -1.6943565590    0.1375361557
C       -0.5312858083   -1.2106778280    3.7719307667
O       -6.0810813122    0.3312026480   -0.9927607878
S       -0.3413696536    0.2447138952    2.7247167604
H       -4.9745657188    1.4174937589    1.4131162725
H       -3.4065648971   -2.1652984549   -0.3752515193
H       -2.8655272361    1.7389815539    2.6427216128
H       -1.2746503294   -1.8239839787    0.8161703563
H        0.4835633938    2.2827378549    3.6458857361
H       -1.1566525652    1.7707611548    4.3810501599
H        1.8117132645    0.7378392915    1.8412530201
H        1.0059058444   -0.7236925271    0.9987881974
H       -6.5233555155   -1.8100311567    1.2234467340
H       -6.2820470218   -2.6339127533   -0.3382292811
H       -7.6025932109   -1.4561098487   -0.1449543066
H        0.3099559310   -1.2464947139    4.4669670375
H       -1.4647921059   -1.1323876839    4.3321420832
H       -0.5321686886   -2.1102859193    3.1555082774
27   

C       -4.2146182271    0.5894112118    1.3131267070
C       -3.2460152111   -1.3239299654    0.2012285185
C       -3.0316951896    0.7769542202    2.0315033268
C       -2.0527424463   -1.1238557104    0.9078340223
C       -4.3294766277   -0.4541858033    0.3850354507
C       -1.9352066461   -0.0759658354    1.8395219297
C       -0.4247998651    1.5373791798    3.7449664917
C        0.9628554647    0.1156110447    1.7629507867
C       -5.6149615507   -0.6744051349   -0.3797598735
C       -6.6451603233   -1.5605455924    0.2877461745
C       -0.5236492295   -1.2684737951    3.7266848437
O       -5.7142741538   -0.3759843514   -1.5612901361
S       -0.3694667888    0.2282779074    2.7337803338
H       -5.0449072511    1.2702919902    1.4681380445
H       -3.3193520917   -2.1357802691   -0.5150779675
H       -2.9595264486    1.6069024709    2.7283614721
H       -1.2095451858   -1.7814974759    0.7208025417
H        0.3779435981    2.2622698429    3.7262166942
H       -1.2454486167    1.6685478498    4.4366253667
H        1.7714511050    0.8242678408    1.8841605627
H        1.0241370165   -0.6372567950    0.9899068533
H       -7.2148499799   -0.9783687485    1.0163140646
H       -6.1518125252   -2.3915122907    0.7987279307
H       -7.3313528883   -1.9635007291   -0.4625860187
H        0.3144551600   -1.3057068576    4.4254102969
H       -1.4621732173   -1.2369081798    4.2829872699
H       -0.4957935539   -2.1446040552    3.0778107361
27   

C       -4.2197759594    0.5094826974    1.3223838958
C       -3.1639766785   -1.3300375306    0.1640888181
C       -3.0508189515    0.7233923618    2.0564100214
C       -1.9859079306   -1.1029079965    0.8873567552
C       -4.2782694235   -0.5000400064    0.3514471683
C       -1.9179957834   -0.0767667017    1.8478993604
C       -0.4910610169    1.5402460078    3.8125956490
C        0.9697592650    0.2353329428    1.8032674423
C       -5.5526347132   -0.7931453204   -0.4023735752
C       -6.6777805187   -1.4133370126    0.4002738803
C       -0.4739886523   -1.2663931508    3.7129428122
O       -5.5479680616   -0.8985645318   -1.6211669814
S       -0.3732643399    0.2639265595    2.7653198162
H       -5.0814491041    1.1440147144    1.5001225880
H       -3.2040486112   -2.1297300322   -0.5689090942
H       -3.0192740779    1.5311459848    2.7817808050
H       -1.1173291828   -1.7242745930    0.6926770609
H        0.2802407720    2.2987111144    3.8204512320
H       -1.3205718808    1.6162889052    4.5019175941
H        1.7467469792    0.9736535368    1.9511112047
H        1.0686110779   -0.4924152599    1.0102679730
H       -7.2701745838   -0.6269408733    0.8741702850
H       -6.2703729874   -2.0716207224    1.1721312272
H       -7.3259116805   -1.9997038270   -0.2572357052
H        0.3591408390   -1.2899754005    4.4181775520
H       -1.4175905368   -1.2896757471    4.2609890302
H       -0.4048100219   -2.1212813770    3.0392611789
27   

C       -4.2290219984    0.4195229872    1.3489932857
C       -3.1124549210   -1.3531654813    0.1398591527
C       -3.0641880976    0.6562832232    2.0828654498
C       -1.9403753801   -1.1018643727    0.8643989864
C       -4.2548099593   -0.5660383003    0.3514405747
C       -1.9044807924   -0.0974562471    1.8493556153
C       -0.5240076550    1.5246431323    3.8419613988
C        0.9702674212    0.3114413439    1.8000626050
C       -5.5109527480   -0.9022391278   -0.4071604098
C       -6.7359247782   -1.2563795636    0.4126320418
C       -0.4145519437   -1.2783206281    3.6833380212
O       -5.4601620243   -1.2326913157   -1.5846095913
S       -0.3679947065    0.2744054014    2.7684900517
H       -5.1110683343    1.0182424023    1.5489939373
H       -3.1265371808   -2.1383392554   -0.6099643239
H       -3.0574495753    1.4456245384    2.8288534401
H       -1.0517424459   -1.6881167388    0.6521064369
H        0.2202769823    2.3094557110    3.8606980925
H       -1.3509676608    1.5573674082    4.5377213117
H        1.7215936462    1.0737376114    1.9584029573
H        1.0908809285   -0.3977240642    0.9933388848
H       -7.2762705938   -0.3459591872    0.6830294835
H       -6.4390610797   -1.7844463253    1.3226499735
H       -7.3991441713   -1.9032217824   -0.1687761446
H        0.4225669069   -1.2903045191    4.3841239164
H       -1.3540719359   -1.3438237970    4.2349687487
H       -0.3216470078   -2.1159312378    2.9910251100
27   

C       -4.3015013406    0.3356623828    1.3576966949
C       -3.1272404915   -1.3842180745    0.1243676548
C       -3.1389950815    0.6126001854    2.0812700584
C       -1.9589586444   -1.0906733044    0.8387371443
C       -4.3010067146   -0.6484120983    0.3566431149
C       -1.9534541824   -0.0942201366    1.8320449714
C       -0.6244884681    1.5508743738    3.8402300097
C        0.9003757917    0.4382215472    1.7642026330
C       -5.5420513108   -1.0362612518   -0.3973081660
C       -6.8409699635   -1.1209980262    0.3814338932
C       -0.3962651174   -1.2418900435    3.6322062753
O       -5.4708415251   -1.5527777060   -1.5052369624
S       -0.4253819297    0.3267972752    2.7439689002
H       -5.2011938194    0.9017031999    1.5728968335
H       -3.1137054009   -2.1660589369   -0.6291045420
H       -3.1551223526    1.3963918114    2.8329718929
H       -1.0500103973   -1.6395966061    0.6130828008
H        0.0856426642    2.3664999644    3.8662783533
H       -1.4451736088    1.5355648862    4.5440088625
H        1.6199266583    1.2292240618    1.9291284097
H        1.0432360022   -0.2513827416    0.9442419960
H       -7.2993095305   -0.1311324387    0.4469288468
H       -6.6521759605   -1.5021821309    1.3885210707
H       -7.5339448189   -1.7989395623   -0.1251257914
H        0.4459929599   -1.2288643386    4.3267830423
H       -1.3276514643   -1.3584037738    4.1892137001
H       -0.2718409370   -2.0628651180    2.9250662323
27   

C       -4.2820884331    0.2715791885    1.3760731103
C       -3.0656867710   -1.3854433415    0.0992538722
C       -3.1262591265    0.5593510550    2.1058556971
C       -1.9046189033   -1.0796209218    0.8202314800
C       -4.2621715046   -0.6938405679    0.3547484390
C       -1.9239447608   -0.1108901167    1.8398177063
C       -0.6396115491    1.5114089270    3.8939868161
C        0.9139609501    0.4985359559    1.7884704935
C       -5.4874695608   -1.0830761863   -0.4210336051
C       -6.8421701634   -0.9075195046    0.2405136241
C       -0.3375243265   -1.2683758450    3.6080889758
O       -5.4038472305   -1.7249274689   -1.4607847373
S       -0.4075104903    0.3236392381    2.7647030831
H       -5.1903287717    0.8165841730    1.6079712055
H       -3.0277256146   -2.1464883714   -0.6744267553
H       -3.1612601457    1.3240881242    2.8763257735
H       -0.9817556708   -1.5979361402    0.5792071333
H        0.0470308483    2.3459335111    3.9417866145
H       -1.4582188861    1.4532379470    4.5979808497
H        1.6107704693    1.3050918218    1.9743574484
H        1.0761221303   -0.1652356328    0.9509756314
H       -7.1696675383    0.1308701880    0.1452742979
H       -6.7852589504   -1.1790270103    1.2979574573
H       -7.5774644724   -1.5554447973   -0.2453999548
H        0.5035347031   -1.2529506502    4.3040656812
H       -1.2659402812   -1.4253167866    4.1601459292
H       -0.1910174565   -2.0653985546    2.8781366532
27   

C       -4.2978012151    0.1796794094    1.4204768374
C       -3.0580998122   -1.4288913767    0.1066182327
C       -3.1370315458    0.4949017586    2.1307531725
C       -1.8929009249   -1.0946411759    0.8078710109
C       -4.2734160238   -0.7826666104    0.3939489345
C       -1.9212902372   -0.1373257322    1.8372130360
C       -0.6499039689    1.4996191064    3.8867217134
C        0.8934134753    0.5628944853    1.7389636980
C       -5.4960897906   -1.1869897160   -0.3779003455
C       -6.8562215643   -0.7616630620    0.1442899676
C       -0.2653423413   -1.2664142499    3.5598481187
O       -5.4255464735   -1.9422911158   -1.3396144885
S       -0.4016340337    0.3330409098    2.7389094463
H       -5.2116059257    0.7026248259    1.6783587623
H       -3.0087642307   -2.1798815061   -0.6761813776
H       -3.1794694062    1.2524919205    2.9079039035
H       -0.9596561626   -1.5819599106    0.5433121643
H        0.0090651915    2.3563704076    3.9305129589
H       -1.4511292988    1.4055325784    4.6066812935
H        1.5662106785    1.3906221407    1.9201715345
H        1.0611579880   -0.0863582715    0.8912557465
H       -7.0014969131    0.3085998841   -0.0238479155
H       -6.9377979050   -0.9831306420    1.2116721407
H       -7.6417351555   -1.3097472207   -0.3841398896
H        0.5878095283   -1.2330117585    4.2402924133
H       -1.1777463414   -1.4598224039    4.1268587026
H       -0.1076258186   -2.0492027982    2.8169420935
27   

C       -4.3243966972    0.0962002066    1.5109619897
C       -3.0507774419   -1.4597438246    0.1661995464
C       -3.1611835006    0.4582042242    2.1942395392
C       -1.8842149691   -1.0780187346    0.8404936849
C       -4.2860644653   -0.8679406952    0.4859563786
C       -1.9279730889   -0.1239004050    1.8721539859
C       -0.6793301925    1.5613841255    3.8955462022
C        0.8527817431    0.6894179328    1.7127469110
C       -5.5055591273   -1.3108677551   -0.2699716271
C       -6.8432210348   -0.6783921397    0.0675495393
C       -0.1909938417   -1.1873953072    3.5558359012
O       -5.4428747624   -2.1674452670   -1.1433838113
S       -0.4089850297    0.4062123645    2.7411663435
H       -5.2513059222    0.5809505236    1.7947588405
H       -2.9876655282   -2.2061744740   -0.6199581729
H       -3.2165167852    1.2127828288    2.9735069016
H       -0.9380203834   -1.5258047176    0.5530558306
H       -0.0560306358    2.4450062298    3.9250922049
H       -1.4589841763    1.4335928183    4.6337897506
H        1.4941872499    1.5446802309    1.8793308437
H        1.0290373045    0.0469303097    0.8616315993
H       -6.8019950825    0.4001966902   -0.1055972326
H       -7.0996052299   -0.8771741582    1.1113979460
H       -7.6235407457   -1.1039498753   -0.5701877980
H        0.6745438558   -1.1206395046    4.2179273538
H       -1.0825339774   -1.4179299054    4.1418712191
H       -0.0181919571   -1.9624310670    2.8081656304
