48

C      4.82942   -1.46730   -1.16136
C      4.87127   -3.10062    0.61135
C      3.01462   -1.18539    2.06206
C      2.05926   -0.79348   -0.11638
C      5.93087   -2.07524   -1.76376
C      5.96869   -3.72364    0.01600
C      1.91827   -0.57053    2.66675
C      0.95288   -0.18265    0.47499
C      6.12080   -7.12120   -1.86569
C      7.92903   -7.43506   -3.45850
C     -2.68105   -1.51974    0.81320
C     -4.04688   -0.60500    2.60289
C      6.37466   -8.38395   -1.32392
C      8.18985   -8.69429   -2.91498
C     -3.73794   -1.34917   -0.08479
C     -5.10252   -0.42678    1.70681
C      4.27857   -1.96464    0.03355
C      3.10821   -1.30947    0.66405
C      6.49372   -3.20361   -1.16698
C      0.89190   -0.07205    1.86409
C      6.89565   -6.66063   -2.92966
C     -2.84615   -1.15140    2.14797
C      7.40954   -9.15813   -1.85209
C     -4.93879   -0.80112    0.37009
O      7.63183   -3.84866   -1.67217
O     -0.22187    0.60616    2.37998
O      6.56263   -5.41613   -3.47704
O     -1.78000   -1.39871    3.02061
S      7.69996   -4.18293   -3.31548
S     -1.02224   -0.05475    3.69886
Cl     7.73743  -10.74291   -1.16990
Cl    -6.26775   -0.57789   -0.75616
H      4.41205   -0.57069   -1.61102
H      4.44994   -3.52484    1.51849
H      3.82709   -1.54509    2.68721
H      2.08970   -0.90044   -1.19713
H      6.34908   -1.67747   -2.68308
H      6.42346   -4.60847    0.45137
H      1.86174   -0.47687    3.74669
H      0.13392    0.20727   -0.12213
H      5.32630   -6.49215   -1.47611
H      8.52461   -7.05570   -4.28345
H     -1.73279   -1.93936    0.49157
H     -4.15321   -0.31930    3.64512
H      5.77923   -8.75971   -0.49797
H      8.98720   -9.31234   -3.31505
H     -3.62815   -1.63359   -1.12641
H     -6.04499   -0.00642    2.04276
