48

C      3.15878   -3.84365   -2.43419
C      4.73344   -2.20603   -1.63117
C      2.85144   -1.93381    0.73446
C      1.09829   -2.23421   -0.89146
C      4.09104   -4.28713   -3.37166
C      5.68234   -2.64381   -2.55657
C      1.91592   -1.48789    1.66751
C      0.14935   -1.78244    0.02713
C      9.32070   -5.21149   -4.03906
C     10.83599   -3.32010   -3.84267
C     -4.49166    0.71309    0.89364
C     -2.51558    1.45375    2.10134
C     10.40083   -6.08474   -3.88462
C     11.91292   -4.19336   -3.67895
C     -5.05260    1.98522    1.02096
C     -3.08218    2.72413    2.23640
C      3.45887   -2.79258   -1.54959
C      2.46171   -2.31820   -0.56080
C      5.34707   -3.68160   -3.42775
C      0.56961   -1.41695    1.30711
C      9.55065   -3.83410   -4.02363
C     -3.23069    0.45624    1.43504
C     11.68657   -5.57133   -3.70532
C     -4.34323    2.98134    1.69571
O      6.24934   -4.21630   -4.35839
O     -0.30278   -0.90563    2.27818
O      8.52161   -2.89114   -4.12653
O     -2.71824   -0.82715    1.21361
S      7.26027   -3.17556   -5.20255
S     -1.83417   -1.57557    2.43332
Cl    13.03973   -6.67372   -3.50660
Cl    -5.04677    4.58230    1.86222
H      2.19172   -4.33526   -2.37771
H      4.98555   -1.37793   -0.97473
H      3.89343   -2.01714    1.03023
H      0.77398   -2.48937   -1.89645
H      3.86210   -5.10033   -4.05402
H      6.66354   -2.18373   -2.60097
H      2.21237   -1.20660    2.67364
H     -0.89452   -1.69666   -0.25437
H      8.31606   -5.60126   -4.16047
H     10.98332   -2.24446   -3.83430
H     -5.02311   -0.08245    0.38037
H     -1.52842    1.25062    2.50151
H     10.23984   -7.15802   -3.89380
H     12.91772   -3.80716   -3.54103
H     -6.03324    2.19745    0.60733
H     -2.53970    3.51125    2.75033
