48

C      5.09305   -1.34447   -1.57149
C      5.17187   -3.23851   -0.07722
C      3.66300   -1.43394    1.83073
C      2.48360   -0.68590   -0.13686
C      6.12502   -1.89307   -2.33328
C      6.20065   -3.79860   -0.83274
C      2.70184   -0.83860    2.64687
C      1.50905   -0.09469    0.66840
C      9.01454   -3.65441    1.33906
C      8.49104   -1.51627    0.31575
C     -2.21239   -1.10632    1.24567
C     -3.24260   -0.41847    3.33616
C      8.34415   -3.26847    2.50118
C      7.80629   -1.13503    1.47080
C     -3.35003   -0.69501    0.54616
C     -4.37800   -0.00035    2.63972
C      4.61498   -1.99420   -0.41953
C      3.57264   -1.37019    0.42851
C      6.68795   -3.10632   -1.93976
C      1.62766   -0.17272    2.05608
C      9.07187   -2.78355    0.24965
C     -2.17033   -0.96882    2.63271
C      7.73300   -2.01458    2.55225
C     -4.42184   -0.14259    1.24994
O      7.79173   -3.64808   -2.62238
O      0.64510    0.49604    2.80060
O      9.73236   -3.28857   -0.88063
O     -1.03514   -1.45157    3.29362
S      9.23107   -2.79701   -2.41027
S     -0.07064   -0.31710    4.08290
Cl     6.85337   -1.53821    3.99928
Cl    -5.85138    0.38250    0.37493
H      4.68377   -0.37755   -1.85086
H      4.80021   -3.77274    0.79216
H      4.51501   -1.92177    2.29380
H      2.37647   -0.64288   -1.21734
H      6.51883   -1.36974   -3.19980
H      6.65429   -4.74438   -0.55453
H      2.78879   -0.88729    3.72780
H      0.65776    0.42555    0.23953
H      9.47662   -4.63354    1.25918
H      8.52892   -0.84783   -0.53674
H     -1.36045   -1.53758    0.72906
H     -3.18823   -0.31543    4.41578
H      8.28517   -3.94155    3.35053
H      7.32525   -0.16382    1.52350
H     -3.40118   -0.79774   -0.53307
H     -5.22300    0.42692    3.17004
