48

C      4.20468   -3.08613   -0.99091
C      5.67574   -2.05147    0.62094
C      3.12337   -1.77202    2.27598
C      2.09005   -1.24324    0.15942
C      5.30671   -3.61486   -1.66388
C      6.78510   -2.57617   -0.04213
C      1.98065   -1.34017    2.94989
C      0.94531   -0.80313    0.82176
C      6.26347   -3.21578   -5.35380
C      8.57278   -3.92672   -5.60396
C     -1.54622   -3.15775   -0.10457
C     -0.01995   -3.99570    1.58706
C      5.89656   -4.00731   -6.44494
C      8.20714   -4.72514   -6.68954
C     -0.81973   -3.81996   -1.09573
C      0.71701   -4.64550    0.59545
C      4.37000   -2.29468    0.15847
C      3.18846   -1.75479    0.87153
C      6.58894   -3.35724   -1.18146
C      0.88944   -0.88361    2.21199
C      7.59658   -3.17835   -4.94470
C     -1.13473   -3.23713    1.22694
C      6.87239   -4.75908   -7.10188
C      0.31579   -4.54864   -0.73812
O      7.66216   -3.95784   -1.85489
O     -0.31534   -0.53042    2.84555
O      7.89740   -2.31653   -3.88317
O     -1.91101   -2.49953    2.13348
S      8.77638   -2.93469   -2.58823
S     -1.17239   -1.83089    3.49008
Cl     6.41606   -5.76493   -8.46755
Cl     1.25740   -5.35212   -1.98827
H      3.20629   -3.31633   -1.34925
H      5.82753   -1.42567    1.49616
H      3.95808   -2.16944    2.84680
H      2.12844   -1.19456   -0.92482
H      5.18564   -4.23923   -2.54392
H      7.79259   -2.37439    0.30986
H      1.91735   -1.39259    4.03296
H      0.08303   -0.43601    0.27467
H      5.52867   -2.62218   -4.81878
H      9.60482   -3.89436   -5.26921
H     -2.41817   -2.56131   -0.35467
H      0.30193   -4.04515    2.62103
H      4.86348   -4.04502   -6.77542
H      8.95370   -5.31243   -7.21454
H     -1.12527   -3.75718   -2.13526
H      1.60243   -5.21462    0.85928
