48

C      5.11278   -2.82405    0.50116
C      6.50456   -1.80577    2.19464
C      3.82821   -2.17800    3.82497
C      2.97383   -1.07818    1.84957
C      6.24221   -3.11684   -0.26025
C      7.64075   -2.06797    1.42513
C      2.63149   -1.91345    4.49550
C      1.78795   -0.78317    2.51875
C      5.72519   -1.50719   -3.24761
C      6.41199    0.03131   -1.49957
C     -0.66859   -2.28449    0.65027
C      0.54513   -3.89230    2.00544
C      4.38888   -1.16737   -3.03233
C      5.07512    0.36770   -1.27755
C      0.12446   -2.60406   -0.45272
C      1.34445   -4.20859    0.90514
C      5.22590   -2.15033    1.72824
C      4.00146   -1.79339    2.48582
C      7.49315   -2.69988    0.19108
C      1.61246   -1.23915    3.82397
C      6.72555   -0.92214   -2.46886
C     -0.44177   -2.91448    1.87542
C      4.07458   -0.24003   -2.03828
C      1.13429   -3.55643   -0.31131
O      8.60302   -2.89703   -0.65143
O      0.36144   -1.03666    4.43596
O      8.02741   -1.37442   -2.72995
O     -1.25776   -2.48048    2.93068
S      9.11919   -1.50761   -1.45413
S     -0.61556   -2.40967    4.48646
Cl     2.38874    0.16044   -1.73190
Cl     2.16631   -3.93240   -1.68605
H      4.13363   -3.10836    0.13122
H      6.60695   -1.28724    3.14439
H      4.61695   -2.72890    4.33073
H      3.09551   -0.76275    0.81897
H      6.15827   -3.61992   -1.21749
H      8.62733   -1.75949    1.75897
H      2.47376   -2.25188    5.51557
H      0.98397   -0.24770    2.02547
H      6.00001   -2.24666   -3.99351
H      7.19191    0.47338   -0.88953
H     -1.44321   -1.52702    0.58022
H      0.72467   -4.36954    2.96244
H      3.60111   -1.63380   -3.61419
H      4.81621    1.09117   -0.51122
H     -0.02604   -2.10324   -1.40310
H      2.13033   -4.95108    0.99904
