24   

C       -2.3375651222   -2.2523546022    1.5195067360
C       -4.1284786937    1.8600274834    2.3107418144
C       -4.6385759699   -0.4635433724    2.6506506207
C       -5.3741890949    2.2119859312    2.8429071664
C       -5.8856779981   -0.1054313393    3.1767467480
C       -3.7276664044    0.5161013843    2.1948074901
C       -6.2666255493    1.2324399638    3.2776410472
C       -2.3901562560    0.2463690095    1.6059992319
C       -0.3696257212   -1.0527428876    0.8011800953
C       -1.7355851253   -0.9573049848    1.3446762704
C        1.6313297553    1.8713509783    1.1446185514
N       -2.7847908765   -3.3213752181    1.6388966248
N        0.5973867405   -0.2022592971    0.7263207960
O        0.4439253433    1.0907185246    1.2804450362
Cl      -7.8241020722    1.6703972023    3.9345482864
H       -3.4660651877    2.6533841495    1.9837052908
H       -4.4349132601   -1.5220777690    2.6226593169
H       -5.6555370291    3.2556820107    2.9197904641
H       -6.5683196513   -0.8779597760    3.5118584482
H       -1.8740118450    1.1459729961    1.3042163275
H       -0.0963289601   -2.0275016701    0.4114586809
H        1.4455877061    2.8893776754    1.4988412284
H        1.9397904237    1.9140215604    0.0954525075
H        2.4392137726    1.4324943268    1.7377974886
24   

C       -2.2844868117   -2.2454691416    1.5651327103
C       -4.1940642540    1.8551063649    2.1710902714
C       -4.5885731648   -0.4540628111    2.7077640067
C       -5.4168988862    2.2008349519    2.7578019600
C       -5.8124995461   -0.1026363684    3.2897219428
C       -3.7486879715    0.5214423352    2.1253108749
C       -6.2395173891    1.2248748494    3.3202053030
C       -2.4422212037    0.2540570999    1.4720700349
C       -0.4373548208   -1.0072448735    0.6072751960
C       -1.7708317108   -0.9438636456    1.2377005839
C        1.6299238717    1.7783691622    1.3660860249
N       -2.6660229114   -3.3193372822    1.8064968796
N        0.5489456292   -0.1778049219    0.6231290584
O        0.4154488529    1.0282260773    1.3536755398
Cl      -7.7678672806    1.6546834220    4.0471887555
H       -3.5855748077    2.6442756028    1.7443658079
H       -4.3428330778   -1.5036846136    2.7402152085
H       -5.7349687124    3.2365926318    2.7778650871
H       -6.4402851387   -0.8720162729    3.7245252108
H       -1.9579025957    1.1408325769    1.0837684150
H       -0.2028616328   -1.9417116736    0.1092066898
H        1.4650503630    2.7387278079    1.8629325995
H        1.9714458571    1.9646267917    0.3431527380
H        2.4055377885    1.2286560695    1.9077618825
24   

C       -2.2014762762   -2.2074926695    1.6283605722
C       -4.2564171107    1.8499054557    2.0969032630
C       -4.5706512762   -0.4517783933    2.7137607850
C       -5.4599629068    2.1840356368    2.7284201084
C       -5.7737982637   -0.1115644319    3.3437691637
C       -3.7805763337    0.5265085130    2.0703064026
C       -6.2308622990    1.2063400798    3.3573792776
C       -2.4976725087    0.2700673641    1.3697775916
C       -0.5021179045   -0.9380206954    0.4388648750
C       -1.8013247417   -0.9149542721    1.1508452071
C        1.6247777649    1.6730732312    1.5381180229
N       -2.4961590093   -3.2746553001    1.9908043348
N        0.5031068940   -0.1406384770    0.5380601091
O        0.3888096253    0.9703697992    1.4102162955
Cl      -7.7332782662    1.6221852439    4.1440659512
H       -3.6874432308    2.6395718617    1.6195514844
H       -4.2998307611   -1.4949117679    2.7575081993
H       -5.8030257960    3.2119858755    2.7322069315
H       -6.3616216931   -0.8820959116    3.8293991423
H       -2.0427556067    1.1511106643    0.9322357756
H       -0.3075976422   -1.8226465750   -0.1572112017
H        1.4863409781    2.5495427159    2.1776017352
H        1.9751152157    2.0046457006    0.5557966534
H        2.3822517898    1.0238193122    1.9875606766
24   

C       -2.0782022028   -2.1270413610    1.6999928338
C       -4.3209026328    1.8475581327    2.0208492694
C       -4.5339715732   -0.4425303522    2.7195997838
C       -5.5126039163    2.1615414063    2.6842521041
C       -5.7238533714   -0.1218497005    3.3841864146
C       -3.8002436446    0.5410598182    2.0206636902
C       -6.2251596934    1.1800660711    3.3734217847
C       -2.5339816666    0.3039435837    1.2856719726
C       -0.5399750684   -0.8445091345    0.2985601235
C       -1.8025910781   -0.8618576309    1.0870999530
C        1.6707073123    1.5442525100    1.6785111362
N       -2.2778406258   -3.1726990588    2.1731163174
N        0.4930966750   -0.1014586829    0.4732040384
O        0.4140953542    0.8984244621    1.4746902256
Cl      -7.7108854617    1.5716244026    4.2030825660
H       -3.7972317305    2.6392012049    1.4971694575
H       -4.2267416945   -1.4748838075    2.7803011751
H       -5.8917322904    3.1766073022    2.6664468234
H       -6.2664638849   -0.8950190492    3.9160072823
H       -2.1157146654    1.1814400173    0.8048729888
H       -0.4008835479   -1.6618529066   -0.3998017866
H        1.5771904835    2.2915092961    2.4716934930
H        1.9914820022    2.0431549088    0.7589204850
H        2.4292501525    0.8118142255    1.9711659645
24   

C       -1.9593587537   -1.9841903262    1.7756269911
C       -4.4617689729    1.8452865191    1.8971412986
C       -4.4920450000   -0.3952693123    2.7675351753
C       -5.6483488987    2.1285056997    2.5831952752
C       -5.6766171800   -0.1048416112    3.4551118174
C       -3.8528357959    0.5797022402    1.9708117680
C       -6.2665245829    1.1566391368    3.3702204342
C       -2.6000933782    0.3712672819    1.2052107549
C       -0.5913677596   -0.7076714819    0.1827039262
C       -1.8084924971   -0.7598974629    1.0500869482
C        1.7804403269    1.3455092425    1.7992088191
N       -2.0628537121   -2.9973352830    2.3413835931
N        0.4870932254   -0.0532008256    0.4128416858
O        0.4875523842    0.7948300406    1.5486148567
Cl      -7.7451376556    1.5104829519    4.2290162883
H       -4.0131176931    2.6281659168    1.2963553705
H       -4.1116064563   -1.3974199902    2.8900000372
H       -6.0973372842    3.1118640529    2.5067019722
H       -6.1450860687   -0.8699031626    4.0636014508
H       -2.2471487025    1.2386965004    0.6581047723
H       -0.5491584771   -1.4131835953   -0.6388982718
H        1.7631616767    1.9183936732    2.7307498227
H        2.0702315981    2.0106457049    0.9801533544
H        2.5225348333    0.5463568413    1.8904337896
24   

C       -1.8204039539   -1.7665053661    1.8704163927
C       -4.7137567199    1.7777011981    1.7018085351
C       -4.4389073823   -0.3151592719    2.8519804371
C       -5.8938950914    2.0157251972    2.4155311043
C       -5.6193571527   -0.0708593418    3.5641548623
C       -3.9566268256    0.6089042767    1.8994019941
C       -6.3580938757    1.0938592631    3.3539513187
C       -2.7212733364    0.4431577834    1.0958676932
C       -0.6367086240   -0.5113007818    0.1076312839
C       -1.7989260670   -0.5941815260    1.0501650071
C        1.9805578918    1.0623363717    1.8711406636
N       -1.8226630901   -2.7375561856    2.5142924858
N        0.4983718764    0.0267339744    0.3584962557
O        0.6407660949    0.6326581974    1.6320185723
Cl      -7.8296657380    1.3910548416    4.2456650821
H       -4.3875737128    2.5199893329    0.9822922890
H       -3.9349631770   -1.2408955372    3.0822434753
H       -6.4582446175    2.9246058352    2.2425490105
H       -5.9668510104   -0.7957615575    4.2913603342
H       -2.4961185648    1.2677926334    0.4286498139
H       -0.7530895343   -0.9829663954   -0.8609406794
H        2.0617760664    1.4697158601    2.8829337065
H        2.2596993655    1.8397138428    1.1535004820
H        2.6719396579    0.2197684404    1.7733596088
24   

C       -1.6789809878   -1.4939832064    1.9678020214
C       -4.9959032202    1.6191439093    1.5011757639
C       -4.3760890571   -0.1992604559    2.9460735882
C       -6.1719758558    1.8039054925    2.2369454407
C       -5.5558649678   -0.0117393101    3.6764001731
C       -4.0697848499    0.6135615724    1.8327771557
C       -6.4644224883    0.9889848773    3.3306298572
C       -2.8494901574    0.4972908209    0.9978790543
C       -0.6615269247   -0.2592715571    0.0810745943
C       -1.7741845763   -0.3789471581    1.0744385095
C        2.2074934736    0.7388885954    1.8789530559
N       -1.5904937734   -2.4176016979    2.6727528569
N        0.5292294732    0.1428865108    0.3309301293
O        0.8228212786    0.4564621239    1.6820657122
Cl      -7.9325484232    1.2180719692    4.2477426038
H       -4.8064706322    2.2756234230    0.6596403652
H       -3.7301462283   -0.9907337457    3.2931077379
H       -6.8674653998    2.5875749153    1.9600452848
H       -5.7683712829   -0.6511897914    4.5255227499
H       -2.7685858721    1.2361828860    0.2085001816
H       -0.9108419794   -0.4135985518   -0.9620334780
H        2.3848207698    0.9961862964    2.9271307481
H        2.5138445320    1.5815352905    1.2517104773
H        2.8110859432   -0.1371002743    1.6230766485
24   

C       -2.2439047991   -2.3543558026    1.8998735438
C       -4.2731694946    1.7196442215    1.5833922277
C       -4.3838549270   -0.2842781280    2.9065184455
C       -5.3859751601    2.2298964490    2.2614263168
C       -5.5002247415    0.2293037886    3.5777448575
C       -3.7459843257    0.4502055751    1.8830351376
C       -6.0123916487    1.4883864882    3.2631043255
C       -2.5612985635   -0.0031990800    1.1143311844
C       -0.6748079127   -1.3588787566    0.2536256830
C       -1.8425303048   -1.1919826809    1.1630587128
C        2.0341660803   -2.5762768748    2.1710740163
N       -2.5683259229   -3.3135102548    2.4769440804
N        0.5147122748   -1.7077308038    0.5856394239
O        0.7477258391   -1.9993782562    1.9534640752
Cl      -7.4030754258    2.1233780289    4.1067474706
H       -3.8162173155    2.3296563582    0.8126238774
H       -4.0498197818   -1.2587810899    3.2276796444
H       -5.7704516434    3.2117416330    2.0110007575
H       -5.9745011472   -0.3570287190    4.3564133725
H       -2.1752990757    0.7273116210    0.4122412364
H       -0.7980652695   -1.0248352843   -0.7697914969
H        2.1752277948   -2.7665073401    3.2389090591
H        2.8169690587   -1.8934236074    1.8273253916
H        2.1195025803   -3.5229791448    1.6292803055
24   

C       -2.0704835847   -2.1765831022    2.0973384390
C       -4.3910591401    1.6979419020    1.5157925457
C       -4.3517532598   -0.2101333475    2.9771465594
C       -5.5424352679    2.1673825163    2.1577720082
C       -5.5071280430    0.2618931160    3.6120404760
C       -3.7683683913    0.4970200318    1.9029734446
C       -6.1137243128    1.4522685018    3.2101220608
C       -2.5497854390    0.0847350112    1.1635618709
C       -0.5779881383   -1.1589223108    0.3723664611
C       -1.7447115288   -1.0443273593    1.2781984468
C        2.0639465940   -2.8405408423    2.0267711861
N       -2.3362992144   -3.1104146556    2.7423211934
N        0.5878657615   -1.6353078195    0.6300090262
O        0.8393056353   -2.1143717371    1.9401952464
Cl      -7.5525862106    2.0359505040    4.0088195010
H       -3.9805587814    2.2858048816    0.7028305338
H       -3.9453392883   -1.1303940080    3.3671438658
H       -6.0005872136    3.0964264058    1.8390783418
H       -5.9379051740   -0.3028974228    4.4308769342
H       -2.2220423396    0.7992413323    0.4168192164
H       -0.6754050433   -0.6943751947   -0.6017870930
H        2.1982956340   -3.2123151936    3.0466369272
H        2.9061095575   -2.1895621203    1.7737012592
H        2.0481016090   -3.6920390171    1.3398998263
24   

C       -1.9331843839   -2.0117265858    2.3022586233
C       -4.4546558979    1.6850498011    1.4837237964
C       -4.3563222749   -0.1587735653    3.0222285447
C       -5.6387745550    2.1256386672    2.0851114135
C       -5.5439427393    0.2846814957    3.6171096073
C       -3.7837370945    0.5315560191    1.9311243999
C       -6.1965350147    1.4283136581    3.1562221990
C       -2.5334465675    0.1497197395    1.2273487885
C       -0.4981836799   -1.0008384557    0.5017708120
C       -1.6683757304   -0.9290097054    1.3971401852
C        2.0865224996   -3.0258623049    1.8565261661
N       -2.1511295192   -2.9042535636    3.0199335803
N        0.6362471710   -1.5849676878    0.6701434873
O        0.8890429329   -2.2521023900    1.8942985121
Cl      -7.6757084771    1.9762660195    3.9050162179
H       -4.0573016092    2.2583539084    0.6540017285
H       -3.9197485082   -1.0444855908    3.4562571343
H       -6.1333249825    3.0180950629    1.7196462626
H       -5.9643431552   -0.2661891503    4.4506981303
H       -2.2407355065    0.8474573956    0.4508518777
H       -0.5664893499   -0.4295908356   -0.4165352147
H        2.2058881495   -3.5619262915    2.8024796105
H        2.9515296791   -2.3726130778    1.7083379070
H        2.0413161938   -3.7542603086    1.0413774056
24   

C       -3.0037669818   -1.9072035395    0.4048070009
C       -4.0618561016    2.0851304863    2.3031548625
C       -4.5763456886   -0.2496249021    2.5461119671
C       -4.9574615835    2.3914406696    3.3336217626
C       -5.4731654170    0.0635529849    3.5750466278
C       -3.8475099745    0.7600284295    1.8790385855
C       -5.6731774712    1.3836864486    3.9788755230
C       -2.8742488686    0.5439793946    0.7776653482
C       -1.4551786517   -0.4364430594   -0.9468528024
C       -2.4541737722   -0.6113352694    0.1190144262
C       -0.0626533638   -3.4973566827   -2.1183066796
N       -3.4558520813   -2.9594381242    0.6237262756
N       -0.7349434441   -1.2952464606   -1.5813668447
O       -0.8267651763   -2.6679777743   -1.2454114085
Cl      -6.7921359910    1.7656912486    5.2637479255
H       -3.5276695216    2.9013462351    1.8304626978
H       -4.4862994055   -1.2984241889    2.3122600235
H       -5.1014780918    3.4213420808    3.6389118518
H       -6.0214588649   -0.7307509019    4.0685458381
H       -2.4055965229    1.4592692757    0.4343197279
H       -1.2589433294    0.5865398365   -1.2454348258
H       -0.2081562461   -4.5466990423   -1.8459235724
H        1.0005428577   -3.2539121738   -2.0333051650
H       -0.3836747323   -3.3537010445   -3.1543239912
24   

C       -2.8064510763   -1.9340898269    0.6016928390
C       -4.1005817897    2.0891615031    2.2728724894
C       -4.5687930645   -0.2494548708    2.5658903234
C       -5.0370943058    2.4026640256    3.2640249414
C       -5.5048861186    0.0707303117    3.5570175804
C       -3.8397615434    0.7580845721    1.8956681728
C       -5.7487013050    1.3964054916    3.9159713404
C       -2.8260384686    0.5361317386    0.8321666273
C       -1.3163649093   -0.4483061282   -0.8066626124
C       -2.3401342554   -0.6264459398    0.2329625435
C       -0.1534760438   -3.4866488506   -2.2637576442
N       -3.1822282295   -2.9974094787    0.8979615924
N       -0.6806834443   -1.3002315620   -1.5344412011
O       -0.9399046054   -2.6842558285   -1.3855914963
Cl      -6.9175862084    1.7871969441    5.1528509557
H       -3.5714769900    2.9048096027    1.7935308563
H       -4.4525391266   -1.3016298571    2.3612109989
H       -5.2165275151    3.4370961690    3.5331019252
H       -6.0505319487   -0.7224104223    4.0553060947
H       -2.3904658582    1.4566317059    0.4605120603
H       -1.0303015425    0.5760338480   -1.0139346548
H       -0.4019205354   -4.5415741669   -2.1157430044
H        0.9107225338   -3.3415176762   -2.0556138619
H       -0.3572517571   -3.2182166541   -3.3046074341
24   

C       -2.6037150066   -1.9405237091    0.7925119273
C       -4.1288900332    2.0903441750    2.2375545964
C       -4.5528489989   -0.2517458784    2.5687181313
C       -5.1059132706    2.4034493161    3.1889654138
C       -5.5277961525    0.0679589511    3.5217943848
C       -3.8231839193    0.7577312806    1.9022726044
C       -5.8141523642    1.3951890705    3.8416291286
C       -2.7699888231    0.5350738646    0.8784615639
C       -1.1717387396   -0.4595188385   -0.6722969044
C       -2.2227508215   -0.6306577548    0.3430446736
C       -0.3008245424   -3.4776927124   -2.3496264253
N       -2.8998298705   -3.0057616779    1.1627718068
N       -0.6315431738   -1.3036699054   -1.4813762099
O       -1.0809412286   -2.6466581271   -1.4926010423
Cl      -7.0323608933    1.7854899415    5.0301272986
H       -3.6038086023    2.9072397834    1.7559181683
H       -4.4099925874   -1.3048803994    2.3863345147
H       -5.3198651359    3.4390985402    3.4262305670
H       -6.0713816291   -0.7266469168    4.0199960860
H       -2.3628955714    1.4554652713    0.4754359083
H       -0.7922069371    0.5482501457   -0.7927646161
H       -0.6572546412   -4.5096041381   -2.2818016867
H        0.7513845211   -3.4472583985   -2.0513701783
H       -0.3916499270   -3.1394056573   -3.3860563275
24   

C       -2.3822467273   -1.9342920784    0.9819202827
C       -4.1496703275    2.0772584977    2.1943720391
C       -4.5111196900   -0.2692375774    2.5681198570
C       -5.1674794277    2.3806476967    3.1053940183
C       -5.5256600719    0.0407980242    3.4822071028
C       -3.7905954507    0.7478109094    1.9037619315
C       -5.8637919495    1.3653653277    3.7603805701
C       -2.6990727417    0.5319531826    0.9207631686
C       -1.0146782546   -0.4750098126   -0.5425437729
C       -2.0923631645   -0.6314481071    0.4525429521
C       -0.4938665969   -3.4498953601   -2.4119256650
N       -2.5973642586   -2.9927854758    1.4206393752
N       -0.5810479191   -1.3027337013   -1.4276379628
O       -1.2097048892   -2.5665000839   -1.5509529110
Cl      -7.1318693211    1.7437295237    4.8995579510
H       -3.6351767367    2.8984935307    1.7087042758
H       -4.3315291039   -1.3209589954    2.4095810187
H       -5.4228933067    3.4140413380    3.3090677967
H       -6.0602232280   -0.7591099575    3.9816609580
H       -2.3187889347    1.4487144643    0.4844191757
H       -0.5471314714    0.5015435122   -0.5874605772
H       -0.9934474746   -4.4226764316   -2.4354808759
H        0.5288190446   -3.5870618379   -2.0481099151
H       -0.4635623167   -3.0429571162   -3.4270261670
24   

C       -2.1693763200   -1.9215364679    1.1806625953
C       -4.1794524257    2.0576953669    2.1125187924
C       -4.4465000921   -0.2834339339    2.5874476789
C       -5.2400163474    2.3549886239    2.9756523169
C       -5.5035584528    0.0207542877    3.4539967521
C       -3.7511023308    0.7345539606    1.8986781356
C       -5.9105033967    1.3396596421    3.6573614493
C       -2.6203048489    0.5208194826    0.9619869923
C       -0.8439075396   -0.5089418113   -0.3960750777
C       -1.9560263726   -0.6386659650    0.5740871196
C       -0.7201893269   -3.3775655235   -2.4701406403
N       -2.3190484345   -2.9636241173    1.6810205568
N       -0.5247051474   -1.3040526962   -1.3544188793
O       -1.3175618632   -2.4620245672   -1.5539067171
Cl      -7.2315431854    1.7107395831    4.7372180360
H       -3.6868921104    2.8778171372    1.6028256925
H       -4.2136221684   -1.3316731876    2.4823166571
H       -5.5494215111    3.3835038664    3.1206227947
H       -6.0175139363   -0.7792250826    3.9745119916
H       -2.2641702838    1.4265313676    0.4840565074
H       -0.2842549266    0.4185643895   -0.3679332787
H       -1.3525668681   -4.2648197731   -2.5664324611
H        0.2660373593   -3.6845109043   -2.1092607127
H       -0.6141660223   -2.9102411587   -3.4537155108
24   

C       -1.9618382707   -1.9123904372    1.4231887960
C       -4.2098888446    2.0167535357    1.9901486940
C       -4.3613211329   -0.2914530712    2.6441989346
C       -5.3107816600    2.3192446173    2.7994547239
C       -5.4590843750    0.0182635872    3.4563406087
C       -3.7033094653    0.7077916761    1.8942184150
C       -5.9442501896    1.3235129591    3.5429712767
C       -2.5361369596    0.4836974741    1.0067332798
C       -0.6713298334   -0.5808436197   -0.2283932748
C       -1.8111469812   -0.6687101956    0.7262932735
C       -0.9782198194   -3.2381805025   -2.5394635966
N       -2.0584385468   -2.9235134759    1.9946245783
N       -0.4720696734   -1.3200230093   -1.2584505560
O       -1.4100376079   -2.3538849289   -1.5066702091
Cl      -7.3156660123    1.7013866907    4.5555833031
H       -3.7482159008    2.8205985629    1.4282839933
H       -4.0666259400   -1.3293645015    2.6286576184
H       -5.6810520719    3.3363631461    2.8535149459
H       -5.9433840699   -0.7667403347    4.0257922552
H       -2.2084545771    1.3640777214    0.4653216472
H       -0.0129172094    0.2740376358   -0.1292359878
H       -1.7366171995   -4.0090827653   -2.7034765064
H       -0.0391021899   -3.7215794573   -2.2540405189
H       -0.8290922894   -2.6850874080   -3.4717025964
24   

C       -2.7750763730   -1.6415483457    0.1851310177
C       -3.6708492989    1.5632135152    3.3221692545
C       -4.8006272894   -0.1615462154    2.0863537960
C       -4.8596464469    1.8576903505    3.9994410278
C       -5.9862141308    0.1354876608    2.7694092223
C       -3.6081858635    0.5466842998    2.3518029434
C       -6.0285774892    1.1454440055    3.7309996698
C       -2.3053903846    0.3107139899    1.6833448479
C       -0.5259410879   -0.6120492509    0.2060571793
C       -1.9375490094   -0.6014390722    0.7022061101
C       -0.6264586967    0.4088997731   -3.1715987780
N       -3.4334874558   -2.5064157074   -0.2348219101
N       -0.1358068793   -0.2412133178   -0.9569651526
O       -1.1448211416    0.1707859856   -1.8637507570
Cl      -7.5115654304    1.5114546699    4.5770241844
H       -2.7858066781    2.1422000460    3.5598728512
H       -4.8661345927   -0.9516511357    1.3545629838
H       -4.8797761453    2.6473135684    4.7414708261
H       -6.8873726258   -0.4249687840    2.5483484956
H       -1.5096657594    0.9788691118    1.9932096946
H        0.2502588522   -0.8417895658    0.9263223460
H       -1.4327083772    0.7412463882   -3.8317727314
H       -0.1926081930   -0.5095401256   -3.5782985691
H        0.1440847862    1.1850299255   -3.1367017600
24   

C       -2.7790387869   -1.9152037591    0.3546117579
C       -3.6953210091    1.7219457739    2.9806384738
C       -4.7588738562   -0.2798931656    2.1806170021
C       -4.8624789153    2.0666403448    3.6717973987
C       -5.9242621398    0.0709362985    2.8728112221
C       -3.6116253198    0.5424167737    2.2190131170
C       -5.9885212963    1.2446085040    3.6243898724
C       -2.3330294244    0.2600159851    1.5228932425
C       -0.5583397116   -0.8588911705    0.1693292580
C       -1.9458142884   -0.8154070930    0.7339882373
C       -0.6996152493    0.7417465513   -2.9698169104
N       -3.4308139273   -2.8296480823    0.0439674595
N       -0.1841475263   -0.3502671353   -0.9450962576
O       -1.1720152462    0.3510793699   -1.6810012906
Cl      -7.4453897582    1.6749604756    4.4853966392
H       -2.8429555795    2.3887748904    3.0431243705
H       -4.8027742317   -1.2040925957    1.6257225287
H       -4.8989945134    2.9812666217    4.2519732821
H       -6.7919612029   -0.5770649048    2.8253368023
H       -1.5671717782    1.0173030974    1.6488946573
H        0.1879288726   -1.4027891788    0.7362535487
H       -1.5071390160    1.2248382601   -3.5273185427
H       -0.3587964392   -0.1342441722   -3.5301522026
H        0.1307892975    1.4469177578   -2.8678460953
24   

C       -2.7784924222   -2.1329244016    0.5281639594
C       -3.7275831031    1.7934743431    2.6787564318
C       -4.7120766047   -0.3618464740    2.2738969599
C       -4.8674776188    2.1807816467    3.3925436549
C       -5.8516258051    0.0326527200    2.9853284547
C       -3.6192327436    0.5155986180    2.1014764020
C       -5.9413178069    1.3046227548    3.5515204084
C       -2.3710970114    0.1933911596    1.3684142143
C       -0.6171275668   -1.0473501612    0.0925855276
C       -1.9609721403   -0.9785651576    0.7450245941
C       -0.7131212543    1.0254442323   -2.7616953747
N       -3.4144569188   -3.0919896892    0.3465041913
N       -0.2442146510   -0.4224458250   -0.9631557509
O       -1.1598701399    0.5132694719   -1.5064308810
Cl      -7.3650168626    1.7884430159    4.4392347597
H       -2.9151075097    2.5040270744    2.5781211821
H       -4.7313463617   -1.3639603179    1.8746272241
H       -4.9232411924    3.1710582785    3.8292149593
H       -6.6786896813   -0.6586688981    3.0997082152
H       -1.6448079929    0.9976549521    1.3237781266
H        0.0571853902   -1.8176972769    0.4481500023
H       -1.4819963799    1.6748869322   -3.1898529061
H       -0.5166832768    0.2047461616   -3.4584945044
H        0.2043509366    1.6058397786   -2.6251968729
24   

C       -2.7938317289   -2.2821252747    0.6732330714
C       -3.7697994602    1.8041636550    2.4840622473
C       -4.6947528124   -0.4101113976    2.3438216462
C       -4.8890486189    2.2264158584    3.2105659406
C       -5.8135984311    0.0188416045    3.0680662991
C       -3.6426337641    0.4786098784    2.0315766480
C       -5.9225396611    1.3381228003    3.5085945611
C       -2.4182920785    0.1236755220    1.2734456592
C       -0.7136005239   -1.1923728431   -0.0040303020
C       -2.0063385797   -1.0866337586    0.7267614363
C       -0.6360357388    1.2017600213   -2.6038567563
N       -3.4021381823   -3.2742279510    0.6203845536
N       -0.3019883649   -0.4844557437   -0.9935787822
O       -1.1187964397    0.5990265111   -1.4032848589
Cl      -7.3202498691    1.8649166633    4.4129895887
H       -2.9887438779    2.5256564389    2.2729367082
H       -4.6966797161   -1.4478949155    2.0491059785
H       -4.9601111017    3.2536801204    3.5483429796
H       -6.6090669812   -0.6827202682    3.2918707009
H       -1.7155874577    0.9382931582    1.1366420069
H       -0.1152608099   -2.0711859501    0.2075981669
H       -1.3038130288    2.0146930604   -2.9030058695
H       -0.5974437756    0.4620849302   -3.4094000901
H        0.3670103156    1.6089388612   -2.4440350813
24   

C       -2.7889644805   -2.3645686435    0.7919289066
C       -3.8048763465    1.8038877653    2.3716846792
C       -4.6992243499   -0.4270464991    2.3637882409
C       -4.9017336730    2.2415509180    3.1228982583
C       -5.7941464456    0.0165965180    3.1151742927
C       -3.6726467825    0.4613024054    1.9735482571
C       -5.9068845792    1.3519822577    3.5024834681
C       -2.4708238824    0.0922584884    1.1849842621
C       -0.8159179975   -1.2735207655   -0.1204371556
C       -2.0577708428   -1.1355286286    0.6758838724
C       -0.5094789531    1.3306972870   -2.5028143756
N       -3.3477885257   -3.3835832742    0.8717183994
N       -0.3458310392   -0.5129112420   -1.0460099146
O       -1.0573591433    0.6712889215   -1.3614300289
Cl      -7.2749457017    1.8970250021    4.4407864550
H       -3.0455574576    2.5273019223    2.0973150787
H       -4.7004327091   -1.4758494475    2.1120146436
H       -4.9771299384    3.2819262827    3.4167040416
H       -6.5679178118   -0.6862494883    3.4021852151
H       -1.7888960772    0.9136417021    0.9981903397
H       -0.2858574285   -2.2126749995   -0.0076279921
H       -1.0543201481    2.2607644765   -2.6883611893
H       -0.5945715805    0.6892700210   -3.3852163842
H        0.5453962379    1.5674005538   -2.3330196993
24   

C       -2.7815145362   -2.3991857624    0.9062001447
C       -3.8490744646    1.8150178041    2.2950550708
C       -4.7193041283   -0.4236777392    2.3778536346
C       -4.9160580587    2.2594438674    3.0844321996
C       -5.7821413311    0.0260816299    3.1704864386
C       -3.7181741893    0.4642398055    1.9244046723
C       -5.8914505264    1.3686999733    3.5324058904
C       -2.5457844793    0.0888277126    1.0939490529
C       -0.9450626231   -1.3233069336   -0.2483162967
C       -2.1293498216   -1.1518267352    0.6163826867
C       -0.3577922500    1.4239859593   -2.4200587364
N       -3.2741787886   -3.4324645987    1.1221543940
N       -0.4089312742   -0.5383205065   -1.1185803382
O       -0.9991623095    0.7279501022   -1.3514163245
Cl      -7.2197167531    1.9213596346    4.5220375356
H       -3.1120372319    2.5399947123    1.9689793959
H       -4.7263271543   -1.4767023070    2.1449670934
H       -4.9908482614    3.3060390460    3.3553752729
H       -6.5336675571   -0.6777035597    3.5096164613
H       -1.8928876001    0.9194473515    0.8583442758
H       -0.4840860647   -2.3044853983   -0.2155115962
H       -0.7818500430    2.4278900118   -2.5132257740
H       -0.5086484216    0.8877011367   -3.3617673446
H        0.7157091010    1.5112857423   -2.2259057749
24   

C       -2.7625250196   -2.4233510535    0.9849671145
C       -3.9352841375    1.8079121879    2.1874711346
C       -4.7206373553   -0.4516679063    2.4169275317
C       -4.9681654472    2.2522093801    3.0208876987
C       -5.7478898296   -0.0019309361    3.2552849344
C       -3.7782031990    0.4466515138    1.8675738567
C       -5.8819790618    1.3510146536    3.5666273344
C       -2.6426549465    0.0745281703    0.9845666409
C       -1.0839655371   -1.3696797884   -0.3937241613
C       -2.2076454588   -1.1732093543    0.5384782330
C       -0.1696183741    1.4804500760   -2.3200963416
N       -3.1756841972   -3.4587968491    1.3228927587
N       -0.4793282197   -0.5709315366   -1.2063911282
O       -0.9251859906    0.7651821367   -1.3427004465
Cl      -7.1657114282    1.9035738132    4.6134279622
H       -3.2459816319    2.5420769160    1.7861957981
H       -4.7083406717   -1.5131772741    2.2270027105
H       -5.0639504894    3.3070132289    3.2502009664
H       -6.4520925841   -0.7139514457    3.6702675933
H       -2.0455844792    0.9233230127    0.6844191925
H       -0.6973052080   -2.3820538977   -0.4418699614
H       -0.4737751585    2.5310791691   -2.3245639977
H       -0.3451096846    1.0573175838   -3.3137136599
H        0.8989193408    1.4239187978   -2.0903770269
24   

C       -2.3715542403   -2.2612576559    1.4629268454
C       -4.0654348392    1.8165449339    2.5493228378
C       -4.7181145405   -0.4957460603    2.5172539841
C       -5.3424411853    2.1719956620    2.9978003805
C       -5.9946735850   -0.1334338258    2.9641593835
C       -3.7168105909    0.4766712358    2.2940666383
C       -6.3202385126    1.2005191698    3.2082774023
C       -2.3336624279    0.2081052401    1.8180531150
C       -0.3066549176   -1.1016173049    1.0097831080
C       -1.7047745089   -0.9856679089    1.4557584021
C        1.6027906477    1.9101153552    0.8969263545
N       -2.8641904673   -3.3168744842    1.4499392233
N        0.6380703922   -0.2364984354    0.8541275615
O        0.4308129789    1.1322241514    1.1392035023
Cl      -7.9146317872    1.6434239749    3.7656823909
H       -3.3370606586    2.6052485097    2.3986699442
H       -4.5665341489   -1.5520563939    2.3641786154
H       -5.5809180379    3.2124035026    3.1851723955
H       -6.7442400407   -0.8998985931    3.1245944190
H       -1.7528750029    1.1125366936    1.7462518610
H        0.0122760532   -2.1066334202    0.7545650373
H        1.3976337157    2.9623162117    1.1141244568
H        1.9072013447    1.8187172174   -0.1501607345
H        2.4207650480    1.5699364650    1.5392040162
