17   

C        5.9158521500    0.1245285282   -0.8427791292
C        4.6764425716   -0.6282312984   -1.0436197808
C        5.9741689067    1.0500046451    0.1689330410
C        3.5816452153   -0.4470019345   -0.2372720023
C        4.8146093619    1.2603977862    1.0111314212
C        2.2659951024   -1.1421536125   -0.4086026817
C        2.1075632012   -2.3280658108   -1.3497844545
N        3.6763778329    0.5186271873    0.7948159737
O        4.8242463282    2.0843597815    1.9084028979
O        1.2844112229   -0.7092932295    0.1842437942
H        6.7741295644   -0.0417735852   -1.4858066076
H        4.6406100736   -1.3400600919   -1.8607793880
H        6.8598145079    1.6392564599    0.3624003097
H        2.8164822861   -3.1141603543   -1.0769387224
H        2.2903115277   -2.0123240926   -2.3800316173
H        1.0919023507   -2.7272768841   -1.2764450234
H        2.8787424560    0.7381232112    1.3833152394
17   

C        5.9079747434    0.1528480051   -0.8595982195
C        4.6589055294   -0.5745044709   -1.0908287193
C        5.9890273941    1.0089949096    0.2099259266
C        3.5834660551   -0.4497416214   -0.2487894074
C        4.8432077959    1.1730586457    1.0809012722
C        2.2471792405   -1.0928431639   -0.4736933631
C        2.1024882136   -2.3407472640   -1.3332312426
N        3.6987490228    0.4483619638    0.8404132612
O        4.8687073620    1.9445893447    2.0233293008
O        1.2419971995   -0.5386245452   -0.0465966649
H        6.7539932225    0.0251103234   -1.5272151879
H        4.5971821964   -1.2172855589   -1.9618579666
H        6.8814240065    1.5797458978    0.4264502009
H        2.7448701066   -3.1339391852   -0.9417090585
H        2.3838012892   -2.1193495859   -2.3656402025
H        1.0646331999   -2.6854681753   -1.3153667817
H        2.9024988767    0.6663355149    1.4308883571
17   

C        5.8956778196    0.2012280236   -0.9323449475
C        4.6328663803   -0.5018082196   -1.1635495827
C        6.0321053137    0.9650130360    0.1996923472
C        3.6045282893   -0.4538555016   -0.2576512753
C        4.9292380341    1.0586994532    1.1343347339
C        2.2465296070   -1.0559567065   -0.4933323175
C        2.0801107742   -2.3589225284   -1.2641537157
N        3.7723249102    0.3541491987    0.8932924546
O        5.0007245131    1.7538770188    2.1321657811
O        1.2512824461   -0.4054407909   -0.2061265544
H        6.7073697352    0.1300842167   -1.6491922137
H        4.5223791907   -1.0566358962   -2.0881608580
H        6.9362955690    1.5157890372    0.4189981998
H        2.4656219277   -3.1878939881   -0.6647417970
H        2.6183469627   -2.3175083353   -2.2132895054
H        1.0206091794   -2.5351991416   -1.4706778977
H        3.0021143963    0.5467526054    1.5249702801
17   

C        5.8836029394    0.2582817813   -0.9781711443
C        4.6132479791   -0.4209492860   -1.2363174634
C        6.0403605976    0.9450814550    0.1999126388
C        3.6013425379   -0.4282471819   -0.3126142550
C        4.9507353427    0.9836508591    1.1544693370
C        2.2352875803   -1.0068648768   -0.5900788114
C        2.0829501461   -2.3860419854   -1.2178048273
N        3.7851199700    0.3038178946    0.8852622908
O        5.0406363558    1.6093980612    2.1957963117
O        1.2549137168   -0.2830536710   -0.5134046149
H        6.6840310376    0.2309572957   -1.7105199739
H        4.4775944980   -0.9081830267   -2.1955156295
H        6.9508706847    1.4757274067    0.4415698359
H        2.1350025852   -3.1464227458   -0.4341494754
H        2.8756348231   -2.5722784497   -1.9453171784
H        1.1154898344   -2.4614212887   -1.7220345799
H        3.0271712766    0.4674842099    1.5387348780
17   

C        5.8667963864    0.3797743458   -1.0421656135
C        4.5899982013   -0.2778304771   -1.3226331220
C        6.0452657557    0.9858813827    0.1765707423
C        3.5912782317   -0.3358162693   -0.3893739771
C        4.9707006754    0.9642575483    1.1489272982
C        2.2241240464   -0.9227172934   -0.6800819235
C        2.0872052151   -2.3889208654   -1.0620189249
N        3.7946227480    0.3145638624    0.8516373836
O        5.0829259264    1.5083064609    2.2330609611
O        1.2725267753   -0.1776292616   -0.8361910436
H        6.6554690570    0.3967849372   -1.7874553499
H        4.4330535616   -0.7154139861   -2.3028979855
H        6.9627022593    1.4942744884    0.4390035658
H        2.0415785365   -2.9963434338   -0.1543284169
H        2.9447296061   -2.7071556070   -1.6597173812
H        1.1718316242   -2.5416807294   -1.6403879354
H        3.0559939776    0.4288952064    1.5362786908
17   

C        5.8226430222    0.5267111875   -1.1289760583
C        4.5511075813   -0.1149899769   -1.4645072484
C        6.0047949649    1.0086876861    0.1435071177
C        3.5478537131   -0.2468975202   -0.5457813942
C        4.9392067981    0.8744907072    1.1166460626
C        2.2190782802   -0.9123643688   -0.8553202577
C        2.0182805760   -2.3859386608   -0.5403706539
N        3.7625096102    0.2562204592    0.7605477861
O        5.0612231180    1.2864761115    2.2564316751
O        1.2871430145   -0.2533364983   -1.2786800561
H        6.6064901175    0.6226365217   -1.8733913333
H        4.4000437722   -0.4877256101   -2.4723875561
H        6.9207765228    1.4943005755    0.4504444650
H        2.4318548466   -2.6153800356    0.4450775716
H        2.5294444104   -2.9925696954   -1.2923366921
H        0.9520790843   -2.6290696802   -0.5467873285
H        3.0419993235    0.2703937254    1.4728286288
17   

C        5.7974501788    0.6506521335   -1.1635235936
C        4.5367766902    0.0094347126   -1.5381775611
C        5.9881632794    1.0202684532    0.1447217005
C        3.5413465505   -0.2103252775   -0.6269185319
C        4.9418645251    0.7708682034    1.1158295752
C        2.2620803939   -0.9397178983   -0.9788140454
C        1.9375263320   -2.2635495695   -0.3017556789
N        3.7713773086    0.1649550144    0.7202596578
O        5.0751656061    1.0697877766    2.2890599390
O        1.3949635532   -0.3917246713   -1.6356852497
H        6.5680664400    0.8293668536   -1.9064988943
H        4.3862063596   -0.2948645665   -2.5691217128
H        6.8983899902    1.4962838741    0.4823025002
H        2.2958903146   -2.2635212015    0.7304493471
H        2.4260618170   -3.0759418501   -0.8461961249
H        0.8569902340   -2.4316409854   -0.3049070600
H        3.0721018818    0.0818951713    1.4484014469
17   

C        5.7613837985    0.7971997954   -1.1484610141
C        4.5144051611    0.1466355658   -1.5509756486
C        5.9762197851    1.0477477433    0.1842006965
C        3.5492855179   -0.1866642816   -0.6395001967
C        4.9682141020    0.6668785039    1.1535468975
C        2.3169975310   -0.9543562677   -1.0464371933
C        1.8921432134   -2.1857152338   -0.2586334049
N        3.8063340236    0.0616295412    0.7321997193
O        5.1269934039    0.8520053346    2.3468904242
O        1.5514733184   -0.5003881308   -1.8801609597
H        6.5041414025    1.0728323288   -1.8901851626
H        4.3485764365   -0.0744691739   -2.6009237152
H        6.8793035273    1.5221336528    0.5426206124
H        1.7520071464   -1.9334712397    0.7949377521
H        2.6625476675   -2.9566298490   -0.3452712369
H        0.9531435472   -2.5790099550   -0.6585225532
H        3.1428696797   -0.1355676085    1.4713381861
17   

C        5.7522482597    0.8922190138   -1.1352176289
C        4.5300369650    0.2111095919   -1.5620081477
C        5.9808320161    1.0607365688    0.2081123674
C        3.5998078717   -0.2308578743   -0.6592301219
C        5.0117734357    0.5645698119    1.1651439798
C        2.4004493313   -1.0193468075   -1.1057766625
C        1.8642646384   -2.1567945660   -0.2480466958
N        3.8709519114   -0.0650651016    0.7223851957
O        5.1850494855    0.6740812761    2.3657773891
O        1.7582558882   -0.6634972888   -2.0813397249
H        6.4662885699    1.2538384640   -1.8681560547
H        4.3548380327    0.0546261070   -2.6222558799
H        6.8673437160    1.5527926486    0.5836624097
H        1.4180406583   -1.7585953228    0.6663801810
H        2.6791770552   -2.8382972899    0.0108454367
H        1.1040742183   -2.7136209836   -0.8034167800
H        3.2407383681   -0.3591096814    1.4583055553
17   

C        5.7388565163    0.9568458767   -1.1176602101
C        4.5306667650    0.2565790621   -1.5532354355
C        6.0049270500    1.0442304005    0.2264702169
C        3.6525239341   -0.2904090779   -0.6549309504
C        5.0887194056    0.4446115804    1.1761547564
C        2.4539807443   -1.0677588776   -1.1180386673
C        1.8004856120   -2.1018767102   -0.2114648782
N        3.9606942646   -0.2028200059    0.7264078050
O        5.2935482924    0.4857814031    2.3761101838
O        1.9254363648   -0.7978429940   -2.1860423422
H        6.4128739173    1.3969560492   -1.8455472454
H        4.3259649854    0.1719684507   -2.6165006041
H        6.8827936852    1.5473591985    0.6075998170
H        1.3527136147   -1.6099950793    0.6555354098
H        2.5492169029   -2.8247353633    0.1236503591
H        1.0189132771   -2.6351236628   -0.7603296096
H        3.3723984273   -0.5784583407    1.4597905718
17   

C        5.7067602866    1.0081258060   -1.1239322727
C        4.5285726370    0.2636271177   -1.5683312255
C        5.9966863923    1.0499358188    0.2173453263
C        3.7054487251   -0.3787117590   -0.6805186374
C        5.1342518910    0.3600140439    1.1556992946
C        2.5197847827   -1.1718559100   -1.1493680730
C        1.7700935760   -2.0938134056   -0.1968875481
N        4.0334610019   -0.3276590477    0.6983744954
O        5.3584641277    0.3637685354    2.3528852513
O        2.1089247694   -1.0374983989   -2.2928067971
H        6.3400599042    1.5167447181   -1.8436945852
H        4.3054328504    0.2233276294   -2.6305161275
H        6.8541367325    1.5830138323    0.6041912500
H        1.3201854689   -1.5103872682    0.6103982631
H        2.4586247217   -2.8319892854    0.2228899708
H        0.9775379708   -2.6198749709   -0.7369209031
H        3.4866312539   -0.7728707796    1.4248331719
17   

C        5.6717646025    1.0639868300   -1.1340210550
C        4.5259456542    0.2763829557   -1.5887287339
C        5.9832866544    1.0694225872    0.2030782165
C        3.7611081864   -0.4517666124   -0.7150190569
C        5.1749327231    0.2996602629    1.1273708588
C        2.5868448279   -1.2571693550   -1.1917704492
C        1.7421275128   -2.0633439144   -0.2139985482
N        4.1046674680   -0.4287647575    0.6608391179
O        5.4152192996    0.2758496844    2.3212040286
O        2.2979993940   -1.2712463204   -2.3796747577
H        6.2640297732    1.6334473708   -1.8430738102
H        4.2820115366    0.2740339413   -2.6470954113
H        6.8181035595    1.6324855180    0.5968809394
H        1.2978105167   -1.3974644773    0.5303581338
H        2.3637063819   -2.8108475541    0.2857629405
H        0.9393078197   -2.5756263007   -0.7521274934
H        3.5985471244   -0.9344673202    1.3771265799
17   

C        5.6032440197    1.1133734008   -1.1463752382
C        4.4926711631    0.2748161843   -1.5973546048
C        5.9437642486    1.1025980249    0.1836735691
C        3.7972412227   -0.5256767852   -0.7290774165
C        5.1999605939    0.2661135826    1.1043629132
C        2.6353004122   -1.3529533395   -1.1978756225
C        1.7039736631   -2.0278622551   -0.1997276835
N        4.1628088543   -0.5106984733    0.6410702464
O        5.4626585228    0.2322515966    2.2932233924
O        2.4609359928   -1.5396935368   -2.3933267147
H        6.1464566219    1.7334593050   -1.8522292663
H        4.2182236376    0.2912810624   -2.6481042817
H        6.7541437139    1.7020656629    0.5747775124
H        1.2736633876   -1.2789735897    0.4704882256
H        2.2562922281   -2.7688180447    0.3837502479
H        0.8915970383   -2.5310378466   -0.7320564182
H        3.7051727996   -1.0663094956    1.3530019004
17   

C        6.2646324521   -0.1042235299   -0.0290563549
C        5.2016605974   -1.0996667743   -0.1668776868
C        5.9218058983    1.2224928012    0.0569985572
C        3.8791654531   -0.7420714901   -0.1881625351
C        4.5240708038    1.6032857466    0.0099159480
C        2.8031174041   -1.7669852026   -0.4035259428
C        1.4439518417   -1.3619585335   -0.9576061836
N        3.5532291602    0.6360901301   -0.1161152566
O        4.1763999553    2.7692041691    0.0673657215
O        2.9716906851   -2.9186865758   -0.0316716827
H        7.3052980327   -0.4106088035    0.0019434182
H        5.4707810160   -2.1484267177   -0.2521725935
H        6.6633447077    2.0028977803    0.1576782891
H        1.5749783499   -0.8266939383   -1.9019319744
H        0.9240849286   -0.7201618773   -0.2420868001
H        0.8374782250   -2.2536274284   -1.1408486446
H        2.6055460084    0.9922103997   -0.1270405993
17   

C        6.2553280434   -0.1198954351   -0.0979053423
C        5.1842672215   -1.1105400017   -0.2042676826
C        5.9202016405    1.2013263383    0.0671631416
C        3.8645757574   -0.7562803635   -0.1116008681
C        4.5227519331    1.5807219490    0.1331813031
C        2.7738708443   -1.7682767120   -0.3256359304
C        1.4847954665   -1.3727880653   -1.0319322066
N        3.5450878309    0.6170891689    0.0355408110
O        4.1810213614    2.7431581824    0.2576812340
O        2.8478610604   -2.8717291498    0.1917436240
H        7.2954629964   -0.4247910670   -0.1524838006
H        5.4427600302   -2.1540499819   -0.3578100604
H        6.6673378085    1.9786795976    0.1482150760
H        1.7203755414   -0.8775120924   -1.9778481698
H        0.9041391625   -0.6956259404   -0.4009449541
H        0.8881421719   -2.2651176402   -1.2420125850
H        2.5989200741    0.9690144307    0.1138053443
17   

C        6.2272844944   -0.1397055922   -0.1880396752
C        5.1392162191   -1.1153863634   -0.2540694984
C        5.9213879653    1.1763666700    0.0554779735
C        3.8350699803   -0.7546262144   -0.0481453543
C        4.5375591579    1.5645827368    0.2427814375
C        2.7100581202   -1.7427273109   -0.2256238851
C        1.4988304738   -1.3739920454   -1.0708122795
N        3.5444004644    0.6141757125    0.1780632378
O        4.2202293264    2.7237660838    0.4406383832
O        2.6670714108   -2.7597157670    0.4460183003
H        7.2568265710   -0.4509588789   -0.3328894569
H        5.3726998217   -2.1537732560   -0.4685823686
H        6.6814919820    1.9432566087    0.1119472569
H        1.8118543312   -1.2187395931   -2.1067905253
H        1.0360558228   -0.4592368666   -0.6935339312
H        0.7633824456   -2.1830678283   -1.0420986561
H        2.6123748941    0.9668910186    0.3578335500
17   

C        6.1992284739   -0.1559825681   -0.3372012170
C        5.0916882610   -1.1108512265   -0.3862459378
C        5.9370152047    1.1430964892    0.0208400309
C        3.8129150645   -0.7479914620   -0.0658629252
C        4.5790718451    1.5339016728    0.3423078107
C        2.6433006371   -1.7024542371   -0.1830686826
C        1.5192570556   -1.4027093588   -1.1643376944
N        3.5669469250    0.6034611686    0.2828717085
O        4.3002396463    2.6786290083    0.6512512065
O        2.4842602734   -2.5917580194    0.6338754262
H        7.2093638757   -0.4692115188   -0.5807419619
H        5.2924779019   -2.1364197574   -0.6795209059
H        6.7130205512    1.8941468430    0.0737988749
H        1.7918721624   -1.7841514689   -2.1518838203
H        1.3501989094   -0.3255545439   -1.2352288744
H        0.5959226085   -1.8886463527   -0.8370135674
H        2.6609075815    0.9457858845    0.5794848149
17   

C        6.1504561226   -0.1305794162   -0.4545318159
C        5.0176085293   -1.0558283334   -0.4961741938
C        5.9448318712    1.1465293674    0.0052426668
C        3.7670383238   -0.6799469887   -0.0927472970
C        4.6202940418    1.5441470298    0.4387958010
C        2.5672923993   -1.6092903455   -0.1280453662
C        1.6352217670   -1.5977701239   -1.3288977940
N        3.5813757714    0.6440393687    0.3744876597
O        4.3951385905    2.6679794554    0.8511509600
O        2.3018030336   -2.3047498404    0.8352369586
H        7.1360947041   -0.4490026340   -0.7784078139
H        5.1790252387   -2.0691556209   -0.8492838001
H        6.7424107227    1.8743553364    0.0617197700
H        2.1056178937   -2.1282510107   -2.1607992957
H        1.4315244497   -0.5674430981   -1.6317667000
H        0.6918894748   -2.0900056470   -1.0763761704
H        2.7072676155    0.9746159304    0.7660672014
17   

C        6.0831808075   -0.0515949793   -0.5977069099
C        4.9153904775   -0.9320337403   -0.6467508212
C        5.9518616304    1.1906262032   -0.0283307411
C        3.6942522182   -0.5328527904   -0.1762688428
C        4.6694947997    1.5967811429    0.5113321033
C        2.4901168763   -1.4522332948   -0.1241555236
C        1.9160490377   -2.0330517286   -1.4077011913
N        3.5919769377    0.7453348389    0.4239015504
O        4.5180314107    2.6826090870    1.0423353733
O        2.1296882091   -1.9088465759    0.9467050932
H        7.0387123772   -0.3778217371   -0.9955602833
H        5.0319130368   -1.9305914817   -1.0545924982
H        6.7797634844    1.8822576575    0.0441274633
H        2.7170329623   -2.2442363166   -2.1202196526
H        1.2247781536   -1.3128659265   -1.8531393622
H        1.3764907460   -2.9592815801   -1.1915120088
H        2.7590841296    1.0552741485    0.9113462208
17   

C        6.0148596535   -0.0062253983   -0.7115337348
C        4.8362524857   -0.8712264875   -0.7783134840
C        5.9152565041    1.2007260877   -0.0653638344
C        3.6299478674   -0.4837633315   -0.2568374593
C        4.6540318423    1.5879246895    0.5341198591
C        2.4285075552   -1.3949924198   -0.1932650926
C        1.9894042087   -2.1960966637   -1.4118010649
N        3.5623541541    0.7582263557    0.4195064656
O        4.5358667741    2.6361146762    1.1434964518
O        1.9368128236   -1.6581980057    0.8929816472
H        6.9555367935   -0.3182988700   -1.1536917924
H        4.9421881384   -1.8482782234   -1.2365770126
H        6.7539789288    1.8768237203    0.0265351006
H        2.8532235004   -2.5275582135   -1.9916743746
H        1.3559194257   -1.5699764046   -2.0455784364
H        1.4183968539   -3.0734114008   -1.0952900499
H        2.7488654117    1.0354851519    0.9577082192
17   

C        5.9795701548    0.0335276322   -0.7635399464
C        4.7850138696   -0.8075839255   -0.8528403173
C        5.9170699257    1.2002465060   -0.0435800405
C        3.5972790777   -0.4367718741   -0.2765392429
C        4.6777949869    1.5703900723    0.6089788749
C        2.3735758340   -1.3102375635   -0.2338681400
C        2.0197295626   -2.2359306870   -1.3903519535
N        3.5701819044    0.7660332873    0.4706134087
O        4.5938388885    2.5805232508    1.2847240430
O        1.7457838108   -1.4009038984    0.8119685009
H        6.9034974885   -0.2650479368   -1.2482942355
H        4.8666473450   -1.7513756844   -1.3796630103
H        6.7691414124    1.8565016314    0.0673792198
H        2.8798744757   -2.8459486042   -1.6737310408
H        1.6997801656   -1.6394926701   -2.2488400893
H        1.2016929087   -2.9000992708   -1.0971535633
H        2.7690154224    1.0218501034    1.0380882203
17   

C        5.9502683128    0.0838724446   -0.8286862849
C        4.7376686839   -0.7309315204   -0.9200157073
C        5.9388435906    1.2040503861   -0.0358308072
C        3.5838576038   -0.3849710869   -0.2639081742
C        4.7341205788    1.5530419033    0.6890543908
C        2.3375478922   -1.2189739994   -0.2410791133
C        2.0390602785   -2.2291955810   -1.3398729421
N        3.6094312166    0.7726164785    0.5518148915
O        4.6953425122    2.5239319272    1.4238663391
O        1.6022919691   -1.1609443702    0.7366537706
H        6.8472609689   -0.1968073488   -1.3712735334
H        4.7742014204   -1.6339725058   -1.5190751240
H        6.8060099831    1.8396980597    0.0781310643
H        2.7903354322   -3.0226651757   -1.3332319792
H        2.0449552263   -1.7287361987   -2.3117805844
H        1.0530390781   -2.6737839880   -1.1774081318
H        2.8240970988    1.0162108206    1.1468646025
17   

C        5.9213977686    0.1137335711   -0.8343031798
C        4.7104396486   -0.6967258578   -0.9751631210
C        5.9203718665    1.1604180360    0.0533136327
C        3.5717258454   -0.4260322904   -0.2598670717
C        4.7276711602    1.4388054608    0.8266528926
C        2.3128572554   -1.2359473146   -0.3117005409
C        2.0916835123   -2.2971040721   -1.3804997377
N        3.6075671986    0.6601336167    0.6487753545
O        4.6952640979    2.3488038768    1.6359432526
O        1.4661278265   -1.0745732063    0.5597979753
H        6.8083001523   -0.1112895703   -1.4178708215
H        4.7357776360   -1.5331508571   -1.6647211042
H        6.7858890709    1.7905697487    0.2043309133
H        2.8260184556   -3.0985136383   -1.2664865479
H        2.1903832895   -1.8490507065   -2.3727013842
H        1.0877155911   -2.7197950371   -1.2820425958
H        2.8155632230    0.8692103117    1.2485725075
17   

C        5.9368578250    0.0968570191   -0.8680473423
C        4.7048948049   -0.6775506742   -1.0288789046
C        5.9794922190    1.0878035171    0.0804132202
C        3.5948888381   -0.4396215293   -0.2587513919
C        4.8110673574    1.3443254767    0.8970162169
C        2.2999404417   -1.1843748567   -0.3600517874
C        2.1025308048   -2.3101231621   -1.3656440297
N        3.6753594660    0.5908653338    0.7100472417
O        4.8120256852    2.2155216506    1.7485602953
O        1.3782794544   -0.8762857794    0.3874910119
H        6.8036266392   -0.1080674315   -1.4881275379
H        4.6894799736   -1.4564335747   -1.7830818480
H        6.8606223853    1.6923883708    0.2450444404
H        2.8228709936   -3.1094856770   -1.1735855723
H        2.2407321657   -1.9291345949   -2.3807803248
H        1.0909880900   -2.7161813341   -1.2749203402
H        2.8848858359    0.8109928390    1.3080686204
