68

C     -9.89122   -2.03871    8.33630
C     -7.84602   -3.06805    9.17137
C     -6.46326   -3.23539    9.16075
C     -6.28293   -1.57398    7.40199
C     -8.46070   -2.16379    8.29259
C     -7.66310   -1.41186    7.40403
C     -5.68584   -2.49261    8.27169
C     -3.50180   -2.55060    9.43592
C     -3.46813   -2.90188    7.13731
C      3.82804    3.41915    6.23034
C      1.64869    2.70666    5.34588
C      2.85287    1.15996    6.80119
C      1.37679    1.55448    4.38284
C      2.55454    0.03100    5.81219
C     -2.04536   -2.74143    9.01274
C     -1.48216   -3.99496    9.70299
C     -1.23461   -1.48775    9.37190
C      7.26385    3.92069    8.02259
C      5.04771    3.09966    7.09614
C      6.04928    4.25547    7.15047
C     -0.64441   -1.84880    5.92463
C      0.50647   -2.09535    4.94642
C     -1.05149   -3.12856    6.66100
C      0.93415   -0.82151    4.20791
C     -8.30003   -0.41971    6.45597
N    -11.05156   -1.97193    8.40721
N     -4.27198   -2.64540    8.27942
N     -2.18452   -2.92925    7.56204
N      2.86146    2.44667    6.11868
N      1.30053    0.27949    5.10292
O     -3.90804   -2.35797   10.56565
O      3.72115    4.50218    5.65172
F     -7.37580    0.20991    5.69474
F     -9.17041   -1.02327    5.61464
F     -8.98578    0.53720    7.12528
S     -4.03217   -3.15396    5.59759
H     -8.46076   -3.64184    9.85681
H     -5.99143   -3.93364    9.84252
H     -5.67091   -0.99478    6.72379
H      1.78564    3.64365    4.80742
H      0.79741    2.81607    6.03214
H      2.07793    1.16328    7.58206
H      3.81259    0.97450    7.28035
H      0.42030    1.72863    3.87935
H      2.16699    1.53584    3.60843
H      3.40414   -0.06772    5.10807
H      2.47764   -0.90655    6.37091
H     -0.42934   -4.13925    9.44493
H     -2.03991   -4.88750    9.40565
H     -1.55977   -3.87540   10.78635
H     -0.18697   -1.61651    9.08534
H     -1.28464   -1.32380   10.45116
H     -1.62987   -0.60465    8.86321
H      7.80336    3.04573    7.64021
H      6.96792    3.70110    9.05555
H      7.96956    4.75744    8.05174
H      5.54211    2.19936    6.70834
H      4.71556    2.84859    8.11195
H      5.54465    5.14937    7.52925
H      6.36834    4.50163    6.13331
H     -1.51398   -1.46812    5.37927
H     -0.35548   -1.07626    6.64180
H      1.36120   -2.53929    5.47258
H      0.20291   -2.83215    4.19245
H     -0.21895   -3.51008    7.25908
H     -1.32838   -3.90706    5.94462
H      1.75566   -1.06124    3.50625
H      0.09092   -0.47667    3.59897
