29   

C        1.8452233475   -3.6859425372   -0.9187651434
C        0.8848365304   -3.5530002632    0.0701338145
C        5.3029959310    1.3381229360    0.0192986041
C        5.9503956487    1.1948141151   -1.1981195636
C        2.7224258452   -2.6349551676   -1.1765843505
C        0.7894939305   -2.3548797825    0.7718727774
C        4.2202165778    0.5032626559    0.2715061391
C        5.5085082735    0.2260835308   -2.0997744667
C        2.6735102619   -1.4065386280   -0.4628430914
C        1.6469081890   -1.2660116751    0.5149330792
C        3.7831421112   -0.4293819808   -0.6924102924
C        1.1423131638    1.1626295470    0.3374938347
C        0.8134453144   -0.0250761408    2.5284656038
N        4.4623654186   -0.5743732244   -1.8512594762
N        1.3596322916   -0.0422221944    1.1606562340
H        1.9255408261   -4.6088070547   -1.4819009767
H        0.2020438962   -4.3679118921    0.2818322831
H        5.6366663856    2.0624683446    0.7550542450
H        6.8020039104    1.8136565715   -1.4506891422
H        3.4797252971   -2.8086429987   -1.9328697951
H       -0.0035354179   -2.2640888454    1.5010488551
H        3.7372699850    0.5600036622    1.2359228335
H        6.0337553442    0.1127453308   -3.0408761240
H        1.4035717287    0.9801925291   -0.7093325722
H        1.7522277808    1.9917918778    0.7082919658
H        0.0872195181    1.4515873787    0.3702712064
H        1.0861647188    0.9080746806    3.0308975592
H        1.2252084643   -0.8526482145    3.1149298858
H       -0.2776323325   -0.1103899062    2.5037244171
29   

C        1.8976237360   -3.7418113259   -0.8424184194
C        0.8965257347   -3.5797020325    0.1043808005
C        5.3461013353    1.2351627940    0.1032202958
C        5.8501504532    1.2613566778   -1.1895325795
C        2.7821043001   -2.6957707674   -1.0971300407
C        0.7706769518   -2.3610931302    0.7696276684
C        4.3027267632    0.3543306140    0.3634790193
C        5.3070203999    0.4139197753   -2.1583256996
C        2.6941234735   -1.4565919458   -0.4191014052
C        1.6369080243   -1.2790541895    0.5145080442
C        3.7783665851   -0.4592762850   -0.6577745888
C        1.2515752476    1.1741087959    0.2981881655
C        0.7385737477    0.0136092723    2.4668575760
N        4.3001609627   -0.4334765302   -1.9010752518
N        1.3606837680   -0.0375518135    1.1330089318
H        1.9998400327   -4.6803251158   -1.3752894241
H        0.2066990549   -4.3896014775    0.3124816201
H        5.7543212341    1.8691149321    0.8834908315
H        6.6644285967    1.9239958197   -1.4539003533
H        3.5734383515   -2.8626985147   -1.8199681553
H       -0.0472889296   -2.2520618792    1.4680807578
H        3.8962794396    0.2792843465    1.3634585817
H        5.7173598109    0.4393672058   -3.1610136283
H        1.4709544190    0.9544859640   -0.7511008552
H        1.9463216689    1.9428252050    0.6490590223
H        0.2310742949    1.5669965161    0.3429040815
H        0.9866918346    0.9575505055    2.9619513472
H        1.1139773508   -0.8007224572    3.0947465327
H       -0.3497885983   -0.0681353410    2.3828659599
29   

C        1.9323778238   -3.8049250937   -0.7679772011
C        0.8973156119   -3.6078659425    0.1380807080
C        5.4024379744    1.1178170629    0.1568465222
C        5.7538768963    1.3157014235   -1.1719147554
C        2.8303327917   -2.7701030543   -1.0234772484
C        0.7522298906   -2.3679876998    0.7630144035
C        4.4013518692    0.1898625724    0.4187230743
C        5.1030867156    0.5900266020   -2.1741263406
C        2.7177184600   -1.5199625320   -0.3814660989
C        1.6331032205   -1.2986721885    0.5061115081
C        3.7813441371   -0.5063832564   -0.6318730151
C        1.3402395008    1.1654793457    0.2415848958
C        0.6977620526    0.0518293642    2.3999476533
N        4.1380335550   -0.3043151350   -1.9143957323
N        1.3701986819   -0.0390571704    1.0932340730
H        2.0462626403   -4.7590718233   -1.2697901307
H        0.1960648233   -4.4080575912    0.3455595098
H        5.8891517268    1.6618547598    0.9596626136
H        6.5276440935    2.0235357108   -1.4408013034
H        3.6454534774   -2.9395810824   -1.7189837595
H       -0.0872958985   -2.2340784424    1.4309357996
H        4.0853093275   -0.0099377261    1.4348402825
H        5.3904633111    0.7549001173   -3.2059381275
H        1.5196039954    0.9134762012   -0.8080592612
H        2.0979885582    1.8834942899    0.5682765672
H        0.3538948106    1.6364918784    0.2962233632
H        0.9386865747    1.0045318169    2.8817269275
H        1.0388055053   -0.7511551401    3.0611332275
H       -0.3874908447   -0.0187200562    2.2757047290
29   

C        1.9521186645   -3.8358071117   -0.6827136182
C        0.8841136514   -3.5979699212    0.1761817944
C        5.5059613670    0.9887176921    0.1974812592
C        5.6985271908    1.3633758996   -1.1261354803
C        2.8682999268   -2.8171749047   -0.9402863620
C        0.7262871433   -2.3357131550    0.7540141547
C        4.5333408902    0.0287053476    0.4511352921
C        4.9220548101    0.7770832255   -2.1306922378
C        2.7372984111   -1.5498919047   -0.3437834735
C        1.6264035381   -1.2835485427    0.4945676865
C        3.7936252875   -0.5290809385   -0.6023128492
C        1.4093180341    1.1837246318    0.1769342870
C        0.6682223707    0.1254377603    2.3322039133
N        3.9851715762   -0.1488208023   -1.8783368177
N        1.3749869398   -0.0066500362    1.0475495001
H        2.0744292412   -4.8074378729   -1.1476375433
H        0.1678891623   -4.3847226886    0.3839136859
H        6.0875960924    1.4268895541    1.0019175312
H        6.4417619543    2.1053173918   -1.3891543007
H        3.7055525065   -3.0062493721   -1.6034740611
H       -0.1341893019   -2.1717679151    1.3877685460
H        4.3247565641   -0.2994041093    1.4615737102
H        5.0829522525    1.0826801566   -3.1578816189
H        1.5346179261    0.9010265318   -0.8726694570
H        2.2278383235    1.8479483536    0.4686612427
H        0.4627006127    1.7278859832    0.2505617376
H        0.9116931329    1.0850627818    2.7987778731
H        0.9779008391   -0.6671413244    3.0208149198
H       -0.4141759937    0.0693566198    2.1793534134
29   

C        1.9991514049   -3.8552329611   -0.6173065956
C        0.8983973354   -3.5981278285    0.1942954869
C        5.6666834778    0.8111548909    0.1971944631
C        5.6939050901    1.3925562810   -1.0640869708
C        2.9155260892   -2.8370061367   -0.8771660668
C        0.7113022469   -2.3192673925    0.7259605942
C        4.6976418730   -0.1580435351    0.4294025621
C        4.7636760344    0.9938578627   -2.0292311490
C        2.7479762081   -1.5525159347   -0.3314225761
C        1.6123390347   -1.2690391655    0.4639839547
C        3.8007642451   -0.5217667704   -0.5846063487
C        1.3735859715    1.1850483957    0.0906189193
C        0.6378869496    0.1680099381    2.2684200754
N        3.8312553497    0.0582504442   -1.7972424269
N        1.3486094780    0.0160024307    0.9884329405
H        2.1456802165   -4.8411343453   -1.0436011682
H        0.1814220350   -4.3838818052    0.4032384155
H        6.3695526040    1.1015113077    0.9712149900
H        6.4252951277    2.1526033868   -1.3078842076
H        3.7775865328   -3.0387080943   -1.5035232203
H       -0.1688765656   -2.1410941180    1.3281632235
H        4.6138633386   -0.6417797931    1.3940970434
H        4.7959912906    1.4598596445   -3.0070748646
H        1.4187982180    0.8718116949   -0.9566788688
H        2.2334572929    1.8226577529    0.3146927671
H        0.4546593834    1.7675137828    0.2082166550
H        0.8758244560    1.1371366905    2.7179227273
H        0.9498868728   -0.6104784817    2.9718927356
H       -0.4438227623    0.1036419640    2.1142293241
29   

C        2.0277115287   -3.8399206114   -0.5268827950
C        0.8937516324   -3.5635986435    0.2308342809
C        5.8732923503    0.5715718489    0.1201009413
C        5.7549460542    1.3688908733   -1.0109118849
C        2.9431821792   -2.8220562266   -0.7921198276
C        0.6772197855   -2.2681606344    0.7079520364
C        4.8744631145   -0.3696669630    0.3415083830
C        4.6598668972    1.1994908132   -1.8636903362
C        2.7384016235   -1.5168157545   -0.3114322746
C        1.5784643829   -1.2201666268    0.4409067150
C        3.8010539589   -0.4901630182   -0.5520688742
C        1.2019758858    1.1923468106   -0.0190346668
C        0.6259404250    0.2381517299    2.2327677325
N        3.7004877330    0.2889410562   -1.6428202385
N        1.2929231975    0.0708944586    0.9317301230
H        2.2007945392   -4.8406453026   -0.9061327596
H        0.1766884761   -4.3482293669    0.4436866581
H        6.7087949259    0.6782241910    0.8042079365
H        6.4999939844    2.1203090062   -1.2395363274
H        3.8320682665   -3.0408688432   -1.3734631998
H       -0.2223960362   -2.0736301996    1.2756868444
H        4.9052936587   -1.0180958726    1.2075354813
H        4.5817338534    1.8296011421   -2.7418793081
H        1.2106401866    0.8287053449   -1.0509465801
H        2.0331035692    1.8878147710    0.1275989420
H        0.2577227713    1.7273699069    0.1208442344
H        0.8772595934    1.2136929941    2.6605176859
H        0.9627735602   -0.5309793497    2.9350546513
H       -0.4602111200    0.1687681715    2.1166398843
29   

C        2.0655836008   -3.8299075596   -0.4288453325
C        0.8907955733   -3.5332583929    0.2546272161
C        6.0386794203    0.3698760983   -0.0107284556
C        5.8141100868    1.3436557119   -0.9746672731
C        2.9872170592   -2.8155104597   -0.6864011230
C        0.6443294644   -2.2226330243    0.6703158707
C        5.0198560406   -0.5489546501    0.2140198673
C        4.6004175842    1.3608105170   -1.6681903235
C        2.7485589061   -1.4906342462   -0.2763564969
C        1.5531230807   -1.1799265895    0.4123991245
C        3.8190005471   -0.4725845785   -0.5076524980
C        0.9829090306    1.1656677606   -0.1352991330
C        0.6352856411    0.2978676718    2.1948572066
N        3.6235733801    0.4697050989   -1.4463316166
N        1.2369796152    0.1153469531    0.8648404256
H        2.2650688763   -4.8437161384   -0.7569872672
H        0.1677161418   -4.3142395894    0.4604447092
H        6.9693338551    0.3273422912    0.5456046904
H        6.5674443876    2.0889532466   -1.1959364617
H        3.9059802851   -3.0532483214   -1.2110618426
H       -0.2810139292   -2.0086971274    1.1879625732
H        5.1345152625   -1.3299432120    0.9544430882
H        4.4411158483    2.1253294697   -2.4195037465
H        1.0380498125    0.7588826546   -1.1497648248
H        1.7117033196    1.9746861587   -0.0327098027
H       -0.0247852509    1.5722430554   -0.0059972271
H        0.9103174083    1.2769711436    2.5990489397
H        1.0023410742   -0.4662074647    2.8874648709
H       -0.4553909447    0.2293129333    2.1331662902
29   

C        0.8204677810   -2.5556805229   -2.1783463434
C       -0.1010283026   -2.6036773125   -1.1392839356
C        5.8823535305    0.0032284964   -1.0072331070
C        5.6896692214    1.3660165728   -0.8181643730
C        1.9867186658   -1.8081044868   -2.0286313813
C        0.1595979401   -1.9205232595    0.0504596507
C        4.7517995644   -0.8062006671   -1.0042051790
C        4.3948340515    1.8642428512   -0.6404736139
C        2.2570034697   -1.0996067603   -0.8417958165
C        1.3395936364   -1.1733106599    0.2405221439
C        3.4803988700   -0.2467082653   -0.8034165243
C        0.4460943172   -0.1260532567    2.3380885348
C        2.9044939641   -0.6173286841    2.1362457832
N        3.3098066464    1.0782095624   -0.6385770791
N        1.5704318755   -0.5963330715    1.5128819266
H        0.6273346116   -3.0861591300   -3.1038431461
H       -1.0143653914   -3.1774807326   -1.2472576713
H        6.8739484047   -0.4127609061   -1.1534190799
H        6.5297110091    2.0489472454   -0.8109987792
H        2.6838948686   -1.7505878008   -2.8570770881
H       -0.5617824120   -2.0070310887    0.8510439827
H        4.8386648721   -1.8752948961   -1.1487683737
H        4.2611090715    2.9304018169   -0.4998394956
H       -0.3372161069    0.3039976342    1.7057999434
H        0.7826503362    0.6559722629    3.0258337176
H        0.0293520251   -0.9542221964    2.9197751098
H        3.3401369575    0.3859302310    2.1431679391
H        3.5755607491   -1.3001957251    1.6077352842
H        2.8267751645   -0.9813124698    3.1652608873
29   

C        0.9611667113   -2.6128874889   -2.1172833045
C       -0.0102823109   -2.6103507852   -1.1255574752
C        5.9462028985    0.0614462840   -1.1272119848
C        5.7670957594    1.3805232884   -0.7321557866
C        2.1302638407   -1.8772435092   -1.9371131683
C        0.2040964732   -1.8910180317    0.0506736517
C        4.8262023309   -0.7627141257   -1.1259353012
C        4.4956215359    1.8225948653   -0.3555406282
C        2.3613215605   -1.1280225333   -0.7636400196
C        1.3849277220   -1.1540145169    0.2749929348
C        3.5733740465   -0.2628370353   -0.7303870079
C        0.4083676748   -0.0627563115    2.3171795122
C        2.8683035071   -0.5756916283    2.2299597207
N        3.4211507261    1.0226625513   -0.3550344380
N        1.5615120579   -0.5593025375    1.5494464827
H        0.8031418995   -3.1707403247   -3.0333278546
H       -0.9270657426   -3.1732345346   -1.2589002147
H        6.9206230732   -0.3114191792   -1.4257934207
H        6.5998910240    2.0720591694   -0.7139077311
H        2.8549540423   -1.8571910045   -2.7430765933
H       -0.5564922583   -1.9429244431    0.8171562776
H        4.9141600959   -1.8001095570   -1.4209036880
H        4.3713309514    2.8553169711   -0.0516027668
H       -0.3489723960    0.3516974474    1.6443010209
H        0.7221134560    0.7372857387    2.9949226179
H       -0.0328645879   -0.8731758693    2.9058319611
H        3.3096056945    0.4253677844    2.2385621197
H        3.5570221058   -1.2704679548    1.7402410673
H        2.7460428989   -0.9154096423    3.2629885235
29   

C        1.0242147196   -2.7125385217   -2.0523547248
C        0.0181866458   -2.6469573454   -1.1005574949
C        5.9337162680    0.1223499882   -1.2986084084
C        5.7821676734    1.3842220674   -0.7424019766
C        2.1987703325   -1.9877360599   -1.8652193605
C        0.2047793976   -1.8774247801    0.0462713478
C        4.8281771977   -0.7211891048   -1.2815601680
C        4.5522941098    1.7503276295   -0.1915577524
C        2.4117910602   -1.1865116099   -0.7181655487
C        1.3902951325   -1.1512207640    0.2807733150
C        3.6066856804   -0.2966030312   -0.7211571715
C        0.3676229857    0.0320405438    2.2495964843
C        2.7948120944   -0.6251075091    2.2995851647
N        3.4927001344    0.9315758963   -0.1771672848
N        1.5305690302   -0.5334773513    1.5479537603
H        0.8872140657   -3.3075275146   -2.9482263552
H       -0.9038328583   -3.1994261919   -1.2412306273
H        6.8785014030   -0.1950753306   -1.7278841882
H        6.6052357855    2.0873588614   -0.7277744873
H        2.9318733268   -2.0158374978   -2.6622106246
H       -0.5822854060   -1.8834299752    0.7873523719
H        4.9173293667   -1.7186850717   -1.6896139128
H        4.4484711619    2.7376680214    0.2428411267
H       -0.3479044819    0.4458161062    1.5321239422
H        0.6844902747    0.8456219611    2.9094512878
H       -0.1251501691   -0.7397036029    2.8493205013
H        3.2543563387    0.3629785291    2.3981256129
H        3.4996555746   -1.2986007664    1.8029481638
H        2.6058529770   -1.0276521152    3.2993736223
29   

C        1.0751968382   -2.7985034375   -1.9570082379
C        0.0433866151   -2.6735619056   -1.0428384353
C        5.8975174977    0.2212734450   -1.4557996190
C        5.7994423718    1.4059686927   -0.7440192386
C        2.2529186876   -2.0782119314   -1.7736044241
C        0.2086660897   -1.8505321754    0.0668467326
C        4.8055832149   -0.6398680109   -1.4232639737
C        4.6357237053    1.6775904991   -0.0253983870
C        2.4550287211   -1.2195321700   -0.6608442599
C        1.3962359170   -1.1277420378    0.3014249714
C        3.6355797977   -0.3075149943   -0.7014551603
C        0.3299903275    0.1644690485    2.1773461276
C        2.7006414034   -0.6503445433    2.3889597504
N        3.5903264434    0.8419674762    0.0017265140
N        1.4978831393   -0.4777441924    1.5550223778
H        0.9552825505   -3.4349109633   -2.8265245952
H       -0.8816377659   -3.2211674540   -1.1828684105
H        6.7948841203   -0.0279376114   -2.0128170932
H        6.6148218857    2.1180346199   -0.7330245218
H        2.9844272287   -2.1634532577   -2.5655504828
H       -0.5984048027   -1.8125696358    0.7851784612
H        4.8884077627   -1.5801563058   -1.9476363229
H        4.5727355636    2.6026216862    0.5355446307
H       -0.3392764875    0.5669699692    1.4105914337
H        0.6513877263    0.9973136533    2.8103267724
H       -0.2167796378   -0.5581616257    2.7913850782
H        3.1805327004    0.3161112256    2.5710972890
H        3.4217768629   -1.3159226701    1.9048479208
H        2.4286384797   -1.0977126130    3.3497060562
29   

C        1.1245076831   -2.8972432799   -1.8586665792
C        0.0825582960   -2.7387731436   -0.9648155135
C        5.8006965003    0.3909853728   -1.6592767468
C        5.8307639716    1.4145393632   -0.7290114024
C        2.2945541106   -2.1589674173   -1.6989524553
C        0.2334138917   -1.8663625252    0.1056963807
C        4.7151615796   -0.4789829814   -1.6275947313
C        4.7932510782    1.5245924168    0.1924906925
C        2.4829041409   -1.2337196012   -0.6328496113
C        1.4110289171   -1.1211462592    0.3171637431
C        3.6679133062   -0.3207191881   -0.6821049408
C        0.3025003699    0.3176526693    2.0512809954
C        2.5593212248   -0.7047256214    2.4913646012
N        3.7549422636    0.6810903444    0.2162149382
N        1.4684918197   -0.4203818615    1.5427627798
H        1.0221335110   -3.5818159760   -2.6931813634
H       -0.8358853722   -3.3016621407   -1.0864683196
H        6.5965846032    0.2706564676   -2.3870997828
H        6.6475705625    2.1246418995   -0.7065049518
H        3.0282636923   -2.3175678489   -2.4737208136
H       -0.5779233377   -1.8029673931    0.8177844624
H        4.7259604969   -1.2746461243   -2.3534584925
H        4.8257707586    2.3251662034    0.9220870476
H       -0.3254594823    0.6602338574    1.2229421942
H        0.6310922137    1.1989948343    2.6104271920
H       -0.2921503149   -0.3227905896    2.7104510766
H        3.0632573488    0.2230046918    2.7795941850
H        3.2983635064   -1.3774933241    2.0450806568
H        2.1610383207   -1.1888355210    3.3880583293
29   

C        1.2185383372   -2.9899740196   -1.7888563603
C        0.2062773726   -2.8682819001   -0.8540214475
C        5.6132454876    0.6394932294   -1.9216758261
C        5.9287289089    1.3395600999   -0.7703903774
C        2.3506686940   -2.1840671058   -1.6920658937
C        0.3494851678   -1.9577444898    0.1867602437
C        4.5030851424   -0.1978871150   -1.8817856400
C        5.1296858263    1.1841471174    0.3597565371
C        2.5151548490   -1.2122444079   -0.6666934756
C        1.4848189032   -1.1357076651    0.3225339213
C        3.7300446921   -0.3439813381   -0.7017562832
C        0.3314570709    0.5094968183    1.8001266571
C        2.4075631366   -0.6805067897    2.5713587129
N        4.0663923503    0.3719312448    0.3884766887
N        1.4994771752   -0.3203789526    1.4698541824
H        1.1311694880   -3.7129847791   -2.5920501347
H       -0.6803281435   -3.4885366615   -0.9203429521
H        6.2026408381    0.7498923827   -2.8261055164
H        6.7780054529    2.0101459265   -0.7402896349
H        3.1072410050   -2.3569970838   -2.4440593881
H       -0.4344725586   -1.9046432168    0.9304630460
H        4.2417659413   -0.7024313201   -2.7985045846
H        5.3775624356    1.7427581564    1.2546192303
H       -0.2640610335    0.7082596862    0.9034904175
H        0.6584811931    1.4700800192    2.2093867474
H       -0.2992678332    0.0004067384    2.5358767161
H        2.9351941373    0.2079223462    2.9315967241
H        3.1508463385   -1.4111363280    2.2365890980
H        1.8430982101   -1.1245390944    3.3968129344
29   

C        1.2679288108   -3.0448629536   -1.7394479574
C        0.2713158144   -2.9560985405   -0.7796430745
C        5.4248363842    0.8461537866   -1.9373900228
C        5.9274892753    1.2956899179   -0.7266361171
C        2.3735076953   -2.1993130406   -1.6668901090
C        0.3965651525   -2.0283024051    0.2516267457
C        4.3101930461    0.0154988052   -1.8983442211
C        5.3041982322    0.9073235478    0.4596578286
C        2.5180303704   -1.2332908567   -0.6401466605
C        1.5030560572   -1.1656709845    0.3552134321
C        3.7231937656   -0.3583729363   -0.6691720454
C        0.3249215591    0.5796332412    1.6708798050
C        2.3093789802   -0.6316406510    2.6227200310
N        4.2338275198    0.1031775503    0.4870872721
N        1.4955301936   -0.2812276608    1.4473158505
H        1.1894902222   -3.7726124567   -2.5392205377
H       -0.5931292536   -3.6086665553   -0.8249768938
H        5.8766316425    1.1392842371   -2.8794353663
H        6.7906581293    1.9479726880   -0.6902294406
H        3.1386988148   -2.3211963699   -2.4235668020
H       -0.3788763494   -1.9817546523    1.0048837938
H        3.8801043211   -0.3179507833   -2.8321722400
H        5.7024030505    1.2693234505    1.4002236883
H       -0.2276987981    0.7249187875    0.7372114077
H        0.6458698784    1.5614866752    2.0316337024
H       -0.3453566331    0.1259718473    2.4078792111
H        2.8649677918    0.2439755653    2.9716777637
H        3.0273167127   -1.4200051309    2.3748754894
H        1.6692644358   -0.9992605170    3.4304451757
29   

C        1.3276539057   -3.1265608281   -1.6684374799
C        0.3213925124   -3.0288392382   -0.7159204648
C        5.2665341032    1.0029324063   -1.9004759389
C        5.9152768751    1.2700691139   -0.7036368839
C        2.4215730956   -2.2641603786   -1.6068046344
C        0.4208954354   -2.0707812352    0.2929779990
C        4.1583415177    0.1646055202   -1.8514543073
C        5.4403757646    0.6975752607    0.4786816471
C        2.5402204025   -1.2863573189   -0.5942492660
C        1.5156377166   -1.1928646973    0.3818408038
C        3.7219663395   -0.3814695332   -0.6292212033
C        0.3147718728    0.5972578355    1.6075824777
C        2.3034728418   -0.5494121454    2.6253320475
N        4.3741048070   -0.1126235608    0.5161220552
N        1.4987064929   -0.2557628539    1.4282812361
H        1.2637268443   -3.8710584591   -2.4539189277
H       -0.5335028450   -3.6943659532   -0.7530584292
H        5.6059929785    1.4351120073   -2.8361267480
H        6.7822371516    1.9176710935   -0.6742813762
H        3.1991942788   -2.3655444745   -2.3552088330
H       -0.3640995970   -2.0099665088    1.0351996774
H        3.6115844831   -0.0564791543   -2.7583786386
H        5.9566446632    0.9146839297    1.4063775891
H       -0.2156181386    0.7195226204    0.6578429838
H        0.6176704196    1.5891271586    1.9565387736
H       -0.3689360308    0.1517261891    2.3371120533
H        2.8951125031    0.3265087085    2.9074351998
H        2.9860713098   -1.3845426972    2.4383608664
H        1.6526371615   -0.8295748082    3.4592129999
29   

C        1.3641929157   -3.1954182132   -1.6151533158
C        0.3261938116   -3.0600918028   -0.6998193792
C        5.1287156102    1.1360098148   -1.8149923488
C        5.9125744429    1.2292858528   -0.6732062574
C        2.4617547735   -2.3379216923   -1.5440612331
C        0.3962934621   -2.0691189236    0.2811588541
C        4.0227782691    0.2952331927   -1.7604499474
C        5.5693172633    0.4880544258    0.4608969274
C        2.5493869017   -1.3370278212   -0.5557260853
C        1.4956787001   -1.1978159683    0.3785327543
C        3.7216987453   -0.4154451732   -0.5864324380
C        0.2632205299    0.5977927156    1.5701378826
C        2.3254983715   -0.4271249187    2.5694321184
N        4.5030828741   -0.3228282442    0.5039589801
N        1.4718342195   -0.2199657229    1.3880401403
H        1.3202982828   -3.9625348939   -2.3799489870
H       -0.5316334226   -3.7213086056   -0.7452819384
H        5.3666815774    1.6977641153   -2.7123433208
H        6.7859570626    1.8684901647   -0.6504593593
H        3.2643424361   -2.4505334273   -2.2644259639
H       -0.4137654076   -1.9805475131    0.9928275855
H        3.3730332279    0.1895182485   -2.6193574513
H        6.1924780359    0.5688439066    1.3437648832
H       -0.2718132166    0.7047238214    0.6211494040
H        0.5375474886    1.5986115831    1.9173937542
H       -0.4049735405    0.1335497663    2.3023340696
H        2.9558964656    0.4502346220    2.7407509274
H        2.9688002988   -1.3026109071    2.4360446031
H        1.7075267264   -0.6050041888    3.4548387125
29   

C        1.4039617959   -3.2642754929   -1.5760965605
C        0.3264963454   -3.0796402704   -0.7156740582
C        4.9992165483    1.2815312165   -1.6908811726
C        5.9146695985    1.1988236973   -0.6502449546
C        2.5073332734   -2.4157360383   -1.4898751128
C        0.3635830632   -2.0508558761    0.2284985838
C        3.8977449915    0.4349975648   -1.6372236756
C        5.6995923008    0.2863021396    0.3867600458
C        2.5583084555   -1.3783464323   -0.5403298445
C        1.4700021642   -1.1892996477    0.3425913224
C        3.7321844934   -0.4523649052   -0.5630165356
C        0.1926967653    0.5833175075    1.5378445974
C        2.3834242695   -0.2471885367    2.4406829669
N        4.6351801115   -0.5277637429    0.4298529536
N        1.4344398324   -0.1740773419    1.3172646340
H        1.3852529911   -4.0609997910   -2.3110486371
H       -0.5363543571   -3.7332378980   -0.7743240090
H        5.1356592840    1.9781897969   -2.5115450043
H        6.7927704112    1.8317265596   -0.6326149453
H        3.3407486526   -2.5574309868   -2.1690285259
H       -0.4772850500   -1.9315606091    0.8983675949
H        3.1480828087    0.4547432226   -2.4175629766
H        6.4244595796    0.2315438626    1.1904406079
H       -0.3670773510    0.6786897626    0.6019980851
H        0.4272442815    1.5916380158    1.8927139305
H       -0.4352523522    0.0794521029    2.2793806313
H        3.0370636757    0.6296578332    2.4457972771
H        2.9962886466   -1.1514421841    2.3746895769
H        1.8400648455   -0.2952497823    3.3893143957
29   

C        1.4309652784   -3.3494777104   -1.5145591388
C        0.3202466186   -3.1137593040   -0.7101068620
C        4.8668683364    1.4334949905   -1.4676818884
C        5.9028796172    1.1661446777   -0.5821367713
C        2.5372174954   -2.5052341872   -1.4251361145
C        0.3284614970   -2.0421827619    0.1867498994
C        3.7700533775    0.5798041619   -1.4389823262
C        5.8049734156    0.0742619346    0.2858596743
C        2.5532663036   -1.4205297239   -0.5308131465
C        1.4388224997   -1.1851560542    0.3065367206
C        3.7324648196   -0.4984879779   -0.5440002479
C        0.1293507385    0.5682514385    1.5127256525
C        2.4365208768   -0.0602527813    2.2845377465
N        4.7432194702   -0.7445978075    0.3071445598
N        1.3947136060   -0.1339502372    1.2457648883
H        1.4358048642   -4.1820118041   -2.2088936318
H       -0.5452160579   -3.7635009936   -0.7728597600
H        4.9092500750    2.2737307651   -2.1529924480
H        6.7847759483    1.7934765143   -0.5555125679
H        3.3981834528   -2.6833570050   -2.0599289536
H       -0.5377737779   -1.8927734633    0.8166717785
H        2.9274140841    0.7365842850   -2.0998802358
H        6.6216046257   -0.1207958659    0.9710050324
H       -0.4582956148    0.6567031035    0.5934423623
H        0.3315679195    1.5798882288    1.8781236935
H       -0.4559591753    0.0281892046    2.2635617016
H        3.0791010550    0.8096215284    2.1221688500
H        3.0478352955   -0.9676917332    2.2869321087
H        1.9752843717    0.0142441811    3.2740531809
29   

C        1.4812520480   -3.4271055781   -1.4971661374
C        0.3422096228   -3.1545380434   -0.7456834862
C        4.7923000205    1.5556401114   -1.1829021398
C        5.9258304627    1.1182126205   -0.5095725225
C        2.5857938429   -2.5812709617   -1.4043531197
C        0.3217873733   -2.0480460825    0.1077674836
C        3.6942679741    0.7033639343   -1.1991560399
C        5.9184359881   -0.1322512701    0.1165780254
C        2.5690204850   -1.4542970481   -0.5644046727
C        1.4305544742   -1.1887652107    0.2332051341
C        3.7544909867   -0.5434834537   -0.5614832982
C        0.0903206300    0.5489693337    1.4393261824
C        2.4607431459    0.0688822511    2.1241979425
N        4.8546742695   -0.9487047579    0.0968684957
N        1.3722041463   -0.1126552288    1.1467091727
H        1.5101304057   -4.2900075334   -2.1527319367
H       -0.5219981870   -3.8055453057   -0.8124129222
H        4.7618324670    2.5227191707   -1.6740917715
H        6.8141534305    1.7351651290   -0.4617053932
H        3.4710715196   -2.7889612987   -1.9953727826
H       -0.5656083436   -1.8785064470    0.7018178592
H        2.7755606621    0.9882555352   -1.6956141108
H        6.8095045055   -0.4571266059    0.6408256795
H       -0.5154892253    0.6240409280    0.5306896121
H        0.2666180067    1.5648959912    1.8063216306
H       -0.4640888423   -0.0119661327    2.1982699182
H        3.0448267501    0.9624638693    1.8865276321
H        3.1222259303   -0.8024642044    2.1378855393
H        2.0464497288    0.1685997321    3.1321351272
29   

C        1.5072460855   -3.4754029627   -1.4355063191
C        0.3465820608   -3.1716469380   -0.7316042271
C        4.7624618201    1.6086906752   -0.9503005623
C        5.9623647459    1.0600953616   -0.5159430532
C        2.6103103345   -2.6280800824   -1.3425162206
C        0.3043814783   -2.0345085222    0.0790739041
C        3.6503845739    0.7749936521   -0.9633970409
C        6.0051504222   -0.2786146400   -0.1137101921
C        2.5725415070   -1.4650597727   -0.5519680131
C        1.4116272999   -1.1728724273    0.2061564846
C        3.7603927920   -0.5630052642   -0.5562964852
C        0.0469806374    0.5747546934    1.3740191838
C        2.4195144668    0.1379831873    2.0773596413
N        4.9277628051   -1.0771936326   -0.1290380705
N        1.3371425726   -0.0787039163    1.0987541286
H        1.5546463181   -4.3635994349   -2.0552167329
H       -0.5167760466   -3.8236568102   -0.7994694000
H        4.6928443164    2.6448407213   -1.2648768186
H        6.8647706056    1.6573127069   -0.4835974930
H        3.5119774810   -2.8613246633   -1.8985312952
H       -0.5992370351   -1.8458690341    0.6419528630
H        2.6823665932    1.1426635632   -1.2794875369
H        6.9486036835   -0.6902762626    0.2251509408
H       -0.5544682842    0.6304630731    0.4610996710
H        0.2109491603    1.5976721662    1.7270136342
H       -0.5060873457    0.0197080621    2.1383049237
H        2.9407635507    1.0769242003    1.8700825202
H        3.1411145109   -0.6842736662    2.0556201446
H        2.0060524347    0.1736735948    3.0899750077
29   

C        1.5888515874   -3.5243917544   -1.3927985307
C        0.3970825098   -3.2066378803   -0.7526324156
C        4.7872719172    1.6269806917   -0.7861014845
C        6.0203853855    1.0231803170   -0.5781510778
C        2.6832740874   -2.6695527977   -1.2746199561
C        0.3163171132   -2.0486411035    0.0228444955
C        3.6652622976    0.8069716823   -0.7623589501
C        6.0861936388   -0.3559651068   -0.3584639011
C        2.6133393498   -1.4811213530   -0.5192632552
C        1.4142511182   -1.1789612701    0.1763363394
C        3.7949077585   -0.5726548544   -0.5330450299
C       -0.0048871279    0.5728187200    1.2729744579
C        2.3312565846    0.1372268532    2.0880127671
N        4.9995270539   -1.1416617424   -0.3372071845
N        1.2978747250   -0.0784533388    1.0571315929
H        1.6673432558   -4.4282991048   -1.9860698066
H       -0.4603902985   -3.8638639101   -0.8415258539
H        4.7004829800    2.6940948460   -0.9624944995
H        6.9317555308    1.6074573126   -0.5865767060
H        3.6036349593   -2.9174208670   -1.7926619404
H       -0.6117684671   -1.8514213321    0.5411264372
H        2.6764199916    1.2187273599   -0.9202967139
H        7.0564379779   -0.8118519664   -0.1997156916
H       -0.5701511366    0.6148690143    0.3365076819
H        0.1410035529    1.6004567646    1.6200686362
H       -0.5856777031    0.0244116396    2.0213848895
H        2.8098838616    1.1112625315    1.9515145795
H        3.0976488639   -0.6429453933    2.0503957306
H        1.8788902060    0.0972873370    3.0837465022
29   

C        1.6298255504   -3.5472801184   -1.3071590747
C        0.4174632000   -3.2092297392   -0.7233936722
C        4.8332638418    1.6366266109   -0.6564600825
C        6.0670054491    1.0015560670   -0.6803200452
C        2.7221847841   -2.6928292678   -1.1728786846
C        0.3149709592   -2.0310645964    0.0147142664
C        3.7030427563    0.8320038415   -0.5703258997
C        6.1253966625   -0.3932090479   -0.6260031823
C        2.6407901632   -1.4782233734   -0.4509408423
C        1.4099696900   -1.1605062222    0.1859902477
C        3.8225811650   -0.5678858160   -0.4941455884
C       -0.0449974739    0.6099493768    1.2047930650
C        2.2379048683    0.1412468784    2.1437566470
N        5.0313623952   -1.1640240481   -0.5426286053
N        1.2600257892   -0.0562192025    1.0567090827
H        1.7265669035   -4.4660594542   -1.8743406520
H       -0.4390395560   -3.8656345926   -0.8265327531
H        4.7510428009    2.7171506379   -0.7118522456
H        6.9837357357    1.5733065066   -0.7491405857
H        3.6478818826   -2.9686145212   -1.6664348697
H       -0.6304782080   -1.8192866609    0.4943687245
H        2.7186975610    1.2812452898   -0.5765111523
H        7.0957261750   -0.8749215570   -0.6547061840
H       -0.5708526451    0.6372240019    0.2450836301
H        0.0953657330    1.6431405381    1.5372330682
H       -0.6613929573    0.0812024571    1.9387933885
H        2.6805123268    1.1397250060    2.0818071184
H        3.0395154218   -0.6021011155    2.0968092383
H        1.7444863301    0.0282439759    3.1140932885
29   

C        1.6739354071   -3.5814767304   -1.2154307103
C        0.4449272977   -3.2189527123   -0.6899607526
C        4.9048736892    1.6314224959   -0.5341877278
C        6.1078253524    0.9917777826   -0.7900617781
C        2.7662410326   -2.7290748603   -1.0712111822
C        0.3271881447   -2.0187358590    0.0048145682
C        3.7742362584    0.8355657874   -0.3883044453
C        6.1342123330   -0.3984757630   -0.9046639455
C        2.6785006656   -1.4835039619   -0.3918546848
C        1.4210212341   -1.1488034358    0.1879897535
C        3.8612798843   -0.5702685624   -0.4669861187
C       -0.0577084311    0.6535356109    1.1119530269
C        2.1410575434    0.1150886069    2.2050958922
N        5.0405885380   -1.1601828051   -0.7607882054
N        1.2385900877   -0.0429819626    1.0487959113
H        1.7848609961   -4.5180879440   -1.7499457779
H       -0.4120134035   -3.8731962507   -0.8027405396
H        4.8429639481    2.7125542600   -0.4658445609
H        7.0219828995    1.5576812950   -0.9168055322
H        3.6933315245   -3.0440217404   -1.5369960005
H       -0.6321101200   -1.7889657746    0.4473034173
H        2.8182302556    1.3171956431   -0.2447151896
H        7.0779016960   -0.8850437768   -1.1216951194
H       -0.5367983708    0.6595771510    0.1276739697
H        0.0886366850    1.6939066298    1.4182146605
H       -0.7200431649    0.1605842806    1.8307352015
H        2.5423204547    1.1323858948    2.2381851036
H        2.9786314405   -0.5871773879    2.1534270199
H        1.5969444310   -0.0856176589    3.1332375149
29   

C        1.7759619355   -3.6107623133   -1.0068551580
C        0.8435593557   -3.4940553531    0.0081143590
C        5.2567073488    1.4652706385   -0.0953268976
C        6.0568917338    1.1373292042   -1.1762933236
C        2.6686678509   -2.5695434545   -1.2501785100
C        0.7900190990   -2.3181157880    0.7475285871
C        4.1396353232    0.6720680235    0.1438488066
C        5.7265953298    0.0322361038   -1.9572725801
C        2.6706005399   -1.3604149045   -0.4942375382
C        1.6638153730   -1.2388202536    0.5075315017
C        3.8096242397   -0.4083300550   -0.7081950655
C        0.9819328270    1.1337898077    0.3878057271
C        0.9658893642   -0.0611519842    2.6018848554
N        4.6464128405   -0.7251895002   -1.7228922329
N        1.3816632494   -0.0378770920    1.1890074115
H        1.8237534038   -4.5149182773   -1.6030868610
H        0.1491032874   -4.3016974940    0.2094438784
H        5.5009937467    2.2995816011    0.5539747358
H        6.9415732443    1.7157964465   -1.4100527285
H        3.3941006924   -2.7467626724   -2.0358375348
H        0.0141328732   -2.2308347619    1.4956736589
H        3.5654740382    0.8959080430    1.0266423726
H        6.3702595481   -0.2285630248   -2.7891730093
H        1.3217081444    1.0358236744   -0.6479234233
H        1.4189698604    2.0458158171    0.8056428281
H       -0.1083771037    1.2286203755    0.3811617034
H        1.3142374289    0.8425681256    3.1111432927
H        1.4014149256   -0.9244413206    3.1151920566
H       -0.1248906269   -0.1162204677    2.6764422534
