45

C      4.36846   -7.19913   -6.58673
C      4.59944   -7.31749   -5.21213
C      3.12499   -6.74450   -7.03862
C      3.59610   -6.98440   -4.29972
C      2.12285   -6.41236   -6.12458
C      0.41840   -5.08649   -3.98853
C      1.08735   -6.91711   -2.59220
C     -0.57996   -4.75418   -3.07071
C      0.08838   -6.58037   -1.67972
C      2.34127   -6.52688   -4.74003
C      1.27718   -6.17470   -3.76969
C     -0.76949   -5.48657   -1.88756
C     -4.72530   -5.52544   -2.96243
C     -0.98068   -2.95925    0.87566
C     -1.43713   -2.69344   -0.56541
C     -0.46777   -4.39654    1.03864
C     -2.45510   -3.74402   -1.03213
C     -1.51288   -5.41190    0.55888
C     -1.92309   -5.19147   -0.91783
C     -3.06831   -6.19154   -1.23637
N     -3.55184   -6.12048   -2.60759
O     -5.53915   -5.03371   -2.18889
H      5.14868   -7.45783   -7.29773
H      5.56536   -7.66012   -4.84964
H      2.93199   -6.65725   -8.10489
H      3.79690   -7.05312   -3.23394
H      1.15232   -6.08608   -6.48886
H      0.54883   -4.46972   -4.87391
H      1.71081   -7.78625   -2.39951
H     -1.20715   -3.89630   -3.28568
H     -0.02217   -7.19728   -0.79335
H     -4.88095   -5.53979   -4.05859
H     -1.82772   -2.80114    1.55744
H     -0.20380   -2.24278    1.16688
H     -1.88364   -1.69519   -0.64217
H     -0.56251   -2.69776   -1.22648
H      0.45804   -4.52484    0.46439
H     -0.21842   -4.59351    2.08789
H     -3.35369   -3.67400   -0.40796
H     -2.79609   -3.52873   -2.04828
H     -1.15560   -6.43374    0.72156
H     -2.41675   -5.30949    1.17395
H     -3.92460   -5.98979   -0.58972
H     -2.72328   -7.21262   -1.03857
H     -2.92831   -6.41497   -3.34911
