35

C     -2.29081   -3.12908    5.49654
C     -2.10251   -4.33501    4.83275
C     -2.24117   -1.90074    4.81935
C     -1.85176   -3.13176    2.70923
C     -1.87830   -4.33425    3.44962
C     -2.03794   -1.94219    3.43273
C     -2.38788   -0.60043    5.63219
C     -4.24890   -2.35411   -1.31825
C     -4.85244   -3.69160   -1.75054
C     -2.60010   -4.11814   -1.53905
C     -2.85941   -2.76805   -0.81120
C      0.27160   -5.93128    2.55978
C     -1.65790   -3.08499    1.21257
O     -1.29056   -0.06202    5.91582
O     -3.56959   -0.30195    5.92352
O     -1.84929   -6.97898    3.73065
O     -2.09444   -6.06943    1.36823
O     -3.75678   -4.39184   -2.35007
O     -2.93616   -2.92128    0.60074
S     -1.53514   -5.94277    2.72827
Cl    -2.02111   -0.40490    2.56208
H     -2.47929   -3.12136    6.56681
H     -2.13440   -5.28001    5.36462
H     -4.15286   -1.69132   -2.18420
H     -4.80581   -1.84109   -0.53145
H     -5.23567   -4.24598   -0.88169
H     -5.64272   -3.60811   -2.50186
H     -1.73473   -4.09162   -2.20923
H     -2.46531   -4.90936   -0.79253
H     -2.09435   -2.01654   -1.05276
H      0.54926   -6.90097    2.14031
H      0.56791   -5.12241    1.89057
H      0.70745   -5.79482    3.55030
H     -1.01714   -2.23191    0.95234
H     -1.18252   -3.99653    0.84193
