73

C     -6.97289    2.34773   -3.45229
C     -5.63650    2.55017   -3.08923
C     -7.94867    3.24257   -3.00154
C     -3.88805  -11.00801    1.93644
C     -5.22989  -11.39790    1.92995
C     -5.28383    3.62891   -2.27758
C     -7.59047    4.32692   -2.19617
C     -4.79124    6.82399    2.30583
C     -3.74659    7.65769    0.30722
C     -3.53906    3.90793    1.23861
C     -5.81871    3.21870    0.92117
C     -4.26601    7.88499    3.03819
C     -3.20295    8.72364    1.02953
C     -3.22834    2.66756    1.80560
C     -5.53124    1.98561    1.49190
C     -3.57815   -9.67610    1.66590
C     -6.19742  -10.42966    1.64915
C     -4.55978    6.69561    0.92344
C     -4.82511    4.20534    0.76773
C     -6.25532    4.53018   -1.80763
C     -3.46789    8.84267    2.39826
C     -4.22969    1.69540    1.93229
C     -4.62198   -8.77601    1.39898
C     -5.12079    5.53830    0.16956
C     -5.86213    5.69240   -0.96019
C     -5.72871    7.43020   -2.82735
C     -4.34295   -7.32440    1.12717
C     -6.33676    7.03971   -1.46934
C     -3.15127   -2.35690    2.40395
C     -2.79476   -1.31993    3.47492
C     -3.19053   -3.78409    2.96391
C     -2.73783    0.10414    2.94166
C     -3.57420   -4.80708    1.89727
N     -5.91207   -9.14658    1.38955
O     -4.80055   -6.42836    3.66860
O     -2.96631    9.86676    3.16685
O     -4.04431    0.45307    2.47646
S     -3.67427   -6.48854    2.65432
H     -7.24980    1.50568   -4.08145
H     -4.86759    1.86586   -3.43947
H     -8.99053    3.09581   -3.27580
H     -3.10054  -11.72640    2.14916
H     -5.52343  -12.42310    2.13631
H     -4.24636    3.77756   -1.99338
H     -8.36282    5.00716   -1.84649
H     -5.39737    6.07740    2.81167
H     -3.52157    7.56526   -0.75102
H     -2.75738    4.65854    1.15831
H     -6.83078    3.42482    0.58863
H     -4.45851    7.98589    4.10237
H     -2.56880    9.45348    0.52787
H     -2.21652    2.47989    2.14651
H     -6.30232    1.23004    1.61245
H     -2.54696   -9.33214    1.66786
H     -7.25351  -10.69457    1.63291
H     -5.95466    6.68049   -3.59162
H     -4.63902    7.51787   -2.76189
H     -6.12580    8.39292   -3.16685
H     -3.58336   -7.19119    0.34946
H     -5.26883   -6.81477    0.85250
H     -6.13478    7.81709   -0.73044
H     -7.42787    7.00050   -1.58406
H     -4.12495   -2.10344    1.97129
H     -2.42052   -2.29943    1.58524
H     -3.52474   -1.36218    4.29169
H     -1.81518   -1.55329    3.91177
H     -2.21185   -4.04277    3.38894
H     -3.91727   -3.84351    3.78115
H     -2.01738    0.17992    2.11473
H     -2.42770    0.80005    3.73268
H     -4.56107   -4.58632    1.47671
H     -2.83601   -4.85179    1.08797
H     -2.43951   10.45533    2.60343
