52

C     -1.33919   -5.03880    3.17593
C     -2.60911   -4.70947    2.68841
C     -0.21273   -4.87386    2.36350
C     -2.75077   -4.20925    1.39234
C     -0.35348   -4.36676    1.06921
C     -2.62686    0.52866    0.84808
C     -2.41753    2.90200    0.42205
C     -1.41984    0.30649    0.16223
C     -1.62191   -4.02726    0.57828
C     -1.19466    2.71175   -0.21920
C     -0.69264    1.39710   -0.33337
C     -3.12216    1.82014    0.96720
C      3.95140   -1.03418    0.10559
C      3.46452   -1.06019   -1.34943
C      2.77723   -1.05340    1.09321
C      2.45006    0.05967   -1.62707
C      1.78384    0.08146    0.79954
C      0.33680   -1.14415   -0.93391
C     -0.90002   -1.09495   -0.03719
C      1.27010    0.04118   -0.65109
C     -0.39910    3.86522   -0.77188
C     -1.77759   -3.43057   -0.79157
N     -2.01326   -1.92319   -0.69176
O      0.52285    1.25752   -0.93764
Cl    -4.62425    2.09905    1.81697
H     -1.23031   -5.43466    4.18143
H     -3.48651   -4.85475    3.31158
H      0.77146   -5.14375    2.73495
H     -3.74633   -3.98583    1.01044
H      0.52456   -4.25000    0.43801
H     -3.16587   -0.28898    1.32440
H     -2.82025    3.90522    0.52384
H      4.54094   -0.12368    0.27176
H      4.62087   -1.87951    0.29547
H      4.31078   -0.95075   -2.03457
H      3.02100   -2.03948   -1.57414
H      2.26641   -2.02568    1.04751
H      3.14150   -0.95232    2.12047
H      2.93968    1.03382   -1.51969
H      2.07508    0.00765   -2.65514
H      0.95486    0.06548    1.51436
H      2.28504    1.04658    0.93123
H      0.86957   -2.08634   -0.80405
H      0.03788   -1.07384   -1.98771
H     -0.71957   -1.59325    0.91773
H      0.58541    3.91901   -0.29656
H     -0.22454    3.74365   -1.84542
H     -0.91738    4.81190   -0.60840
H     -0.89539   -3.57068   -1.41524
H     -2.64739   -3.82623   -1.32217
H     -2.87472   -1.76820   -0.15682
H     -2.19057   -1.52853   -1.62391
