33

C      0.09589    0.52247   -2.13503
C     -0.20607   -0.09754   -0.91586
C     -0.17978   -0.12933   -3.33602
C     -0.78585   -1.36387   -0.92201
C     -0.76407   -1.40562   -3.35879
C     -1.06774   -2.02013   -2.13137
C     -3.96442   -4.04523   -1.12580
C     -1.00501   -2.09942   -4.68505
C     -1.99856   -3.25919   -4.58716
C     -1.64764   -4.15723   -3.39838
C     -4.57527   -6.07962   -0.04904
C     -5.93976   -5.42282   -0.27134
C     -1.73756   -3.37975   -2.07801
N     -3.64139   -5.32549   -0.90275
N     -3.16896   -3.15717   -1.69204
S     -5.57180   -3.63598   -0.56291
H      0.54817    1.51015   -2.14626
H      0.01390    0.39987    0.02411
H      0.06193    0.35657   -4.27848
H     -1.01682   -1.85505    0.02184
H     -1.34414   -1.36935   -5.42625
H     -0.04367   -2.48161   -5.05313
H     -3.02044   -2.87569   -4.47275
H     -1.98631   -3.84306   -5.51165
H     -2.30035   -5.03703   -3.37119
H     -0.61952   -4.52367   -3.49939
H     -4.26074   -6.00896    0.99742
H     -4.58593   -7.12822   -0.35206
H     -6.45015   -5.81731   -1.15122
H     -6.58541   -5.50772    0.60231
H     -1.29117   -3.95967   -1.26120
H     -2.70977   -5.67585   -1.09703
H     -3.53574   -2.22304   -1.84803
