42

C    -10.28348    0.87592   -0.94097
C     -9.25299    1.50712   -0.23616
C     -9.96519   -0.04917   -1.94093
C     -7.91897    1.21575   -0.52908
C     -8.63062   -0.33983   -2.23202
C     -5.74083   -0.23561   -3.16116
C     -5.20066   -0.10758   -0.82695
C     -4.40663   -0.52706   -3.45351
C     -3.87174   -0.40192   -1.12450
C     -7.58500    0.28773   -1.53159
C     -6.16840   -0.02039   -1.84244
C     -3.43895   -0.62300   -2.44406
C      0.92935    0.78604   -3.68126
C     -2.13631   -2.92118   -4.12241
C     -2.06334   -3.34484   -2.62585
C     -1.69335   -1.44112   -4.14937
C     -1.47755   -2.12373   -1.88903
C     -1.95901   -0.91051   -2.72462
C     -1.18265    0.39811   -2.42798
N      0.26417    0.30576   -2.59086
O      0.40418    1.28986   -4.66603
H    -11.32196    1.10252   -0.71399
H     -9.48829    2.23524    0.53608
H    -10.75780   -0.55254   -2.48889
H     -7.12734    1.73401    0.00548
H     -8.39647   -1.08064   -2.99184
H     -6.45377   -0.14698   -3.97666
H     -5.49697    0.02780    0.20993
H     -4.12900   -0.67221   -4.49156
H     -3.16294   -0.47169   -0.30330
H      2.02610    0.66657   -3.58545
H     -1.49179   -3.53712   -4.75641
H     -3.15631   -3.03498   -4.50036
H     -3.06504   -3.56225   -2.24344
H     -1.45754   -4.24262   -2.47204
H     -0.61708   -1.38254   -4.33180
H     -2.16260   -0.84871   -4.93712
H     -1.77161   -2.08201   -0.83689
H     -0.38186   -2.16156   -1.92474
H     -1.39156    0.72823   -1.40572
H     -1.53065    1.18134   -3.10464
H      0.82037   -0.06792   -1.83340
