32

C     -0.13862    0.60379   -1.76145
C     -0.58754   -0.09015   -0.63032
C     -0.24780    0.01645   -3.02097
C     -1.13998   -1.36024   -0.78361
C     -0.80142   -1.26395   -3.18706
C     -1.25024   -1.95721   -2.04975
C     -4.14438   -4.05233   -1.27202
C     -0.86938   -1.87789   -4.57281
C     -1.83439   -3.06372   -4.65810
C     -1.59379   -4.01965   -3.48942
C     -5.97254   -4.91864   -0.23897
C     -4.96693   -6.06125    0.02811
C     -1.89941   -3.32887   -2.15255
N     -5.25895   -3.74160   -0.71776
N     -3.35607   -3.16723   -1.95706
S     -3.63139   -5.78989   -1.19967
H      0.29147    1.59700   -1.65949
H     -0.50680    0.35631    0.35726
H      0.09904    0.55833   -3.89893
H     -1.49773   -1.90473    0.08820
H     -1.13979   -1.10577   -5.30175
H      0.13893   -2.21728   -4.84890
H     -2.87211   -2.71135   -4.62278
H     -1.70493   -3.58245   -5.61374
H     -2.21358   -4.91644   -3.58068
H     -0.54615   -4.34846   -3.48445
H     -6.70639   -5.23294   -0.99538
H     -6.52576   -4.67779    0.67469
H     -4.53935   -5.99870    1.03242
H     -5.40290   -7.05146   -0.11800
H     -1.51720   -3.95203   -1.33683
H     -3.69799   -2.21472   -1.89396
