55

C      2.23120    2.28986    1.41209
C      1.64223    1.73977    0.24839
C      2.08347    1.71200    2.67798
C      0.77382   -0.02461    1.57665
C      0.89340    0.56344    0.31581
C      0.10036   -1.23707    1.91402
C      1.32837    0.53428    2.74965
C      0.23306   -1.39152    3.27370
C     -0.47968   -2.05348    0.79725
C     -0.48712    0.92950   -1.77970
C     -1.69112   -1.06251   -2.69721
C      0.16691   -0.11555   -0.83489
C     -1.80619    0.42936   -2.39937
C     -0.93188   -1.11409   -0.34556
C     -3.26544   -4.19981   -2.26693
C      0.27456   -3.70548    6.11290
C     -3.87080    2.07651   -5.65383
C     -0.29145   -2.43345    4.20093
C     -2.13901    1.24714   -3.64985
C     -1.83559   -3.97904   -2.77095
C     -0.96790   -3.17140   -1.79336
N      0.94316   -0.29701    3.79178
N     -1.54014   -1.86250   -1.47259
O      0.72695   -2.77049    5.14488
S     -3.83927    0.90669   -4.25458
H      2.81243    3.20404    1.32030
H      1.77810    2.25489   -0.69929
H      2.53365    2.16891    3.55560
H      0.29711   -2.73739    0.43701
H     -1.33142   -2.66542    1.11218
H     -0.68068    1.85334   -1.22572
H      0.21579    1.18626   -2.58168
H     -2.57230   -1.40736   -3.24593
H     -0.82492   -1.20443   -3.37515
H      0.89739   -0.70141   -1.41021
H     -2.61832    0.57540   -1.67792
H     -1.72830   -0.49822    0.09230
H     -3.26425   -4.72405   -1.30381
H     -3.78193   -3.24738   -2.11930
H     -3.84465   -4.80058   -2.97640
H      1.10839   -3.89383    6.79256
H     -0.02732   -4.65330    5.64310
H     -0.57763   -3.31026    6.68635
H     -4.85245    1.99214   -6.12640
H     -3.10254    1.82986   -6.39271
H     -3.73259    3.10640   -5.31112
H     -1.17759   -2.06446    4.74557
H     -0.59980   -3.31795    3.62539
H     -1.42386    1.02245   -4.45058
H     -2.06463    2.31614   -3.42002
H     -1.85686   -3.49928   -3.75531
H     -1.33937   -4.94634   -2.91997
H     -0.88874   -3.76001   -0.87811
H      0.05409   -3.08474   -2.21501
H      1.35615   -0.31742    4.71457
