39

C     -0.61779    2.18051   -0.06129
C      3.32589   -2.06888   -4.63661
C      2.28965   -1.18644   -4.95715
C      3.70066   -2.23720   -3.29842
C      1.63240   -0.47954   -3.94433
C      3.04136   -1.52974   -2.28990
C      2.64061   -2.66967    1.96463
C      0.74970   -2.22895    2.77244
C      1.99966   -0.64217   -2.60181
C     -2.65118    0.86356   -0.76422
C     -2.76327    1.13940    0.70716
C     -1.38245    0.96080    0.07323
C      1.26271    0.08173   -1.49642
C      0.18049   -0.82894   -0.88816
C      0.37189   -0.03948    1.55682
C     -0.56410   -0.31549    0.35593
N     -0.01890    3.17556   -0.15024
N      1.68875   -3.16626    2.80858
N      2.34727   -1.49476    1.41646
N      1.12274   -1.21715    1.95231
O     -1.51958   -1.30930    0.76102
H      3.84053   -2.61647   -5.42206
H      1.99682   -1.04452   -5.99454
H      4.51017   -2.91661   -3.04271
H      0.83170    0.21195   -4.20036
H      3.33241   -1.65686   -1.24953
H      3.57216   -3.17841    1.75206
H     -0.18776   -2.23102    3.31295
H     -2.90956   -0.13402   -1.10242
H     -2.84701    1.66712   -1.46603
H     -3.02496    2.14171    1.02897
H     -3.09760    0.32976    1.34434
H      1.97447    0.37672   -0.72154
H      0.81121    0.99600   -1.88878
H      0.65641   -1.78019   -0.62124
H     -0.57159   -1.05412   -1.65259
H     -0.24297    0.27312    2.40395
H      1.08674    0.75331    1.33752
H     -1.18395   -2.17788    0.48863
