65

C     -6.76863   -7.47023    9.34318
C     -6.95028   -6.13415    8.90503
C      6.82957    2.62617   -0.79317
C      7.67402    1.50201   -0.72783
C     -5.61118   -8.15236    9.02418
C     -5.97326   -5.50679    8.15746
C      5.55225    2.59329   -0.22938
C      2.69787    1.70128    1.39530
C      7.26210    0.32069   -0.10333
C      1.71199    1.03581    2.11271
C     -3.38951   -8.20795    7.90229
C     -3.74785   -5.55733    7.04827
C      3.09615   -0.98214    2.26288
C     -4.59035   -7.53216    8.25590
C     -4.77236   -6.18428    7.81355
C      5.11790    1.42313    0.40607
C      3.90076    1.04409    1.09707
C      5.98064    0.29288    0.45381
C      4.07570   -0.29420    1.53249
C      1.90827   -0.29645    2.54412
C     -2.41079   -7.59113    7.16160
C     -2.58660   -6.23264    6.73004
C      7.30573   -3.07290    3.39789
C     -1.05862   -8.63719    5.51884
C      6.66423   -1.78739    2.90239
C     -0.33517   -2.54886    4.38792
C     -0.33698   -3.99967    4.88116
C      5.95301   -1.97600    1.55512
C      0.96216   -2.19503    3.67550
C     -1.62950   -4.34508    5.60598
N      5.32329   -0.74975    1.11205
O      7.23123   -4.13743    2.82916
O      7.99721   -2.97074    4.57064
O     -1.23896   -8.26018    6.89177
O      0.86193   -0.83811    3.24252
O     -1.54061   -5.70835    6.02410
H     -7.54358   -7.95436    9.93161
H     -7.86378   -5.60364    9.16115
H      7.17888    3.52866   -1.28715
H      8.66474    1.54985   -1.17180
H     -5.46756   -9.17718    9.35914
H     -6.11434   -4.48113    7.82335
H      4.90616    3.46616   -0.28095
H      2.53250    2.72583    1.07206
H      7.92215   -0.54158   -0.06499
H      0.77117    1.51756    2.35985
H     -3.22220   -9.23253    8.22415
H     -3.89861   -4.53095    6.73180
H      3.25258   -2.00421    2.58575
H     -0.10957   -9.17513    5.47476
H     -1.01439   -7.75892    4.86810
H     -1.87104   -9.29992    5.19466
H      7.42944   -1.00698    2.81022
H      5.94591   -1.43270    3.65198
H     -1.16971   -2.37933    3.69772
H     -0.47216   -1.85932    5.22905
H      0.50342   -4.17488    5.56269
H     -0.21180   -4.68846    4.03736
H      5.20037   -2.76242    1.63397
H      6.66393   -2.31027    0.79726
H      1.81911   -2.31037    4.35413
H      1.12078   -2.85288    2.80966
H     -2.49523   -4.21370    4.94231
H     -1.76912   -3.69748    6.48213
H      7.96722   -2.05512    4.89750
