68

C      8.68294    0.75145   -3.08408
C      6.27837    7.52298    0.38806
C      8.11667    0.55647   -1.81866
C      7.91745    1.30206   -4.11631
C      7.10364    6.42107    0.13361
C      5.03474    7.62724   -0.24232
C      6.78798    0.91685   -1.58758
C      6.58930    1.67067   -3.88255
C      6.68182    5.42337   -0.74689
C      4.60822    6.62423   -1.11780
C      6.01837    1.48341   -2.61678
C      5.42727    5.51599   -1.37162
C      0.71009    0.98117    2.59761
C      0.44795   -1.39742    5.29599
C     -0.30254   -0.59777    4.21832
C      1.99707    0.18946    4.64619
C     -0.89310   -1.53003    3.15705
C     -1.37532    0.30823    4.83931
C      2.39487    1.56847    5.16940
C      3.18122   -0.57379    4.04218
C      1.45417    3.91482    1.71434
C      4.60399    1.90705   -2.33314
C      4.97808    4.40875   -2.28288
C      3.20365    2.47426    0.50350
C      3.27405    3.35818   -0.73722
C      1.82579    2.53736    1.17383
N      0.83446    0.21770    3.70374
N      4.58139    3.17205   -1.47681
O     -0.30625    1.13233    1.92986
O      1.46935   -0.52201    5.76448
O      1.90765    1.58978    2.25432
H      9.71425    0.46390   -3.26682
H      6.60984    8.30336    1.06694
H      8.70450    0.11157   -1.02113
H      8.35144    1.44175   -5.10196
H      8.07755    6.34861    0.60883
H      4.39988    8.48857   -0.05654
H      6.34456    0.73112   -0.60971
H      5.99556    2.09076   -4.69155
H      7.34102    4.58406   -0.96656
H      3.64465    6.71542   -1.61473
H     -0.18461   -1.65823    6.14589
H      0.88024   -2.31518    4.87438
H     -1.46085   -0.97377    2.41108
H     -1.56416   -2.24695    3.64198
H     -0.10234   -2.09248    2.65027
H     -1.77313    0.99546    4.08945
H     -0.95759    0.88603    5.66901
H     -2.20249   -0.29734    5.22346
H      1.50796    2.10915    5.50847
H      2.90707    2.15405    4.40609
H      3.06392    1.43233    6.02310
H      2.88070   -1.58565    3.75788
H      3.98250   -0.64384    4.78292
H      3.55780   -0.06015    3.15504
H      2.21831    4.28330    2.40658
H      0.50086    3.85368    2.24335
H      1.33157    4.64267    0.90488
H      4.04344    2.14051   -3.24007
H      4.05897    1.14558   -1.77450
H      4.10515    4.67714   -2.88094
H      5.78042    4.08588   -2.94726
H      3.97003    2.78950    1.22271
H      3.39783    1.42639    0.25313
H      2.47664    3.13784   -1.45210
H      3.21736    4.41136   -0.46546
H      1.05687    2.19564    0.47541
H      5.31440    3.05773   -0.76774
