30

C      1.27639    0.02917    2.29377
C     -0.04654   -0.27381    2.64144
C      1.66840    0.07165    0.94903
C     -1.00176   -0.53909    1.65090
C      0.71552   -0.18939   -0.03471
C     -0.61068   -0.49225    0.31369
C     -1.55005    1.98493   -3.03869
C      0.87905   -0.23733   -1.54247
C     -1.42761   -0.75910   -0.93661
C     -2.43491    3.62946   -4.40438
C     -2.68695    2.22913   -4.98941
C     -0.57646   -0.08284   -2.03667
N     -1.94808    3.26701   -3.06117
N     -0.90020    1.37201   -2.07564
O     -1.88446    1.33164   -4.13945
H      2.00429    0.23266    3.07402
H     -0.33391   -0.30281    3.68865
H      2.69761    0.30194    0.68453
H     -2.02611   -0.77763    1.92663
H      1.54821    0.52323   -1.95548
H      1.25963   -1.21503   -1.86219
H     -1.48608   -1.83507   -1.14323
H     -2.45207   -0.37699   -0.90154
H     -1.67269    4.18682   -4.95637
H     -3.34870    4.22159   -4.34053
H     -3.72477    1.90675   -4.89614
H     -2.33552    2.09947   -6.01088
H     -0.74798   -0.47718   -3.03637
H     -1.64250    3.95194   -2.37970
H     -0.67207    1.89907   -1.23612
