33

C     -6.57648   -0.75825   -5.08582
C     -5.36356   -0.51126   -4.44446
C     -7.14058   -2.02681   -4.94141
C     -4.74848   -1.51804   -3.69410
C     -5.41047   -2.76226   -3.59649
C     -2.73911   -1.08911   -6.36645
C     -1.24187   -1.23372   -6.19531
C     -4.82653   -5.26058   -3.32978
C     -3.54855   -4.50684   -3.02452
C     -2.08730   -0.72712   -5.05091
C     -4.89651   -3.88032   -2.72553
C     -5.34744   -3.76514   -1.27545
C     -3.40450   -1.24954   -3.04862
N     -6.58316   -2.99984   -4.21152
N     -2.28189   -1.61492   -3.93150
H     -7.07177    0.00519   -5.67942
H     -4.88388    0.46109   -4.53130
H     -8.08490   -2.27243   -5.42638
H     -3.11554   -0.28447   -6.99141
H     -3.33295   -1.99658   -6.37557
H     -0.84619   -2.24031   -6.09974
H     -0.58994   -0.52739   -6.70080
H     -5.12425   -5.36539   -4.36814
H     -5.09683   -6.10115   -2.69616
H     -2.94890   -4.83043   -2.17646
H     -2.97713   -4.09944   -3.85142
H     -2.01419    0.34352   -4.82886
H     -4.96835   -4.60459   -0.68274
H     -6.44112   -3.77049   -1.21503
H     -4.98943   -2.83765   -0.81256
H     -3.36447   -0.18550   -2.75653
H     -3.30118   -1.83928   -2.13583
H     -1.42846   -1.64980   -3.37749
