18   

C        4.6330318505    1.3462448029    0.7535282737
C        5.8137010555    1.1169307504    0.0571279856
C        3.5008874128    0.5758692131    0.4819786556
C        5.8521361942    0.1184657827   -0.9139039771
C        3.5148812075   -0.4449182471   -0.4880718959
C        4.7240196998   -0.6608878675   -1.1995161383
C        2.2836726517   -1.2595635898   -0.7409971179
C        0.9251651485   -0.7878494125   -0.2333828760
O        2.3102354744   -2.3131859061   -1.3628699842
O        4.8390035948   -1.5992432749   -2.1836973789
H        4.5932377720    2.1218963700    1.5101834217
H        6.6960607469    1.7121304045    0.2668017070
H        2.6064258784    0.7852232050    1.0571799894
H        6.7756718883   -0.0458280587   -1.4549487292
H        0.7684527251    0.2603605508   -0.5012525148
H        0.8734880423   -0.9027547009    0.8523883470
H        0.1294441010   -1.3848624510   -0.6883447244
H        5.7501855914   -1.6447583317   -2.5130409901
18   

C        4.6558440379    1.3459553845    0.7976034990
C        5.8081251992    1.1630634824    0.0395830447
C        3.5350944513    0.5453601376    0.5677991315
C        5.8287080068    0.1828834281   -0.9522932416
C        3.5390812337   -0.4554416673   -0.4197620245
C        4.7102403687   -0.6238245610   -1.1952676663
C        2.3294741382   -1.3189268933   -0.6179731070
C        0.9404052540   -0.7735222307   -0.3094983225
O        2.4123600260   -2.4711546229   -1.0185709282
O        4.7836988296   -1.5385308363   -2.2054296141
H        4.6308441665    2.1063863851    1.5701495191
H        6.6820612834    1.7805479814    0.2176570008
H        2.6589451076    0.7051797585    1.1862513938
H        6.7275080806    0.0563356027   -1.5428508666
H        0.8604297063    0.2612998785   -0.6529431768
H        0.7552061211   -0.8169866021    0.7667913497
H        0.1834375417   -1.3715332287   -0.8249488583
H        5.6878218291   -1.5961870387   -2.5526270998
18   

C        4.7232798378    1.2906653296    0.8573865062
C        5.8281316964    1.1418117401    0.0226767540
C        3.5968832321    0.4855203685    0.6732469358
C        5.7957085532    0.1909274611   -0.9985287137
C        3.5526894013   -0.4797736068   -0.3443829146
C        4.6699033224   -0.6180445960   -1.1934009664
C        2.3474367075   -1.3659700565   -0.4960315700
C        0.9502384829   -0.7739553881   -0.3706595369
O        2.4567350047   -2.5681761037   -0.6810882383
O        4.6728717264   -1.5093896777   -2.2269450340
H        4.7406098063    2.0264611016    1.6536071303
H        6.7064544632    1.7622767462    0.1651862356
H        2.7548372213    0.6087083143    1.3454364112
H        6.6565483592    0.0892855700   -1.6475423442
H        0.8965217622    0.1657850007   -0.9267598443
H        0.7163291371   -0.5877873331    0.6803714766
H        0.2129147110   -1.4689237129   -0.7824491811
H        5.5595338584   -1.5810833964   -2.6151004873
18   

C        4.7766018254    1.2322491282    0.9520563228
C        5.8299123896    1.1385919716    0.0439463025
C        3.6523811039    0.4162228940    0.8024124374
C        5.7493548534    0.2302535007   -1.0139073659
C        3.5638512259   -0.4991184923   -0.2538192506
C        4.6249152558   -0.5880388575   -1.1718054089
C        2.3643005783   -1.4049516050   -0.3769963154
C        0.9636126999   -0.8081898778   -0.4095445008
O        2.4840695210   -2.6188476484   -0.3551165292
O        4.5679319055   -1.4469655677   -2.2309541795
H        4.8333522900    1.9321235000    1.7782440009
H        6.7062443999    1.7673745085    0.1596685036
H        2.8513284537    0.4889832529    1.5298768907
H        6.5702387279    0.1686137305   -1.7174205764
H        0.8000113089   -0.3236741074   -1.3757640672
H        0.8425210329   -0.0688576858    0.3852437529
H        0.2172094294   -1.5963937864   -0.2764640463
H        5.4310825784   -1.5021715137   -2.6721205107
18   

C        4.8383041946    1.1842689990    1.0314317360
C        5.8383268947    1.1246517702    0.0613125063
C        3.7104653072    0.3667376636    0.9204153735
C        5.7009852263    0.2482051341   -1.0181125449
C        3.5680907327   -0.5143591444   -0.1557819405
C        4.5721859395   -0.5707915038   -1.1346373561
C        2.3581691156   -1.4159331338   -0.2556184048
C        0.9914251213   -0.8065988054   -0.5292112303
O        2.4380934431   -2.6069932263   -0.0090216900
O        4.4524697030   -1.4040657559   -2.2090391988
H        4.9385915488    1.8593556974    1.8739251589
H        6.7170063309    1.7551124084    0.1458717942
H        2.9444105211    0.4104017303    1.6873663189
H        6.4803255228    0.2120636716   -1.7690472718
H        0.9075082612   -0.5724205596   -1.5937439376
H        0.8662041953    0.1124521876    0.0485295269
H        0.2027280038   -1.5124612088   -0.2544134099
H        5.2831538023   -1.4319283379   -2.7116061141
18   

C        4.9142591690    1.1369263309    1.1193602949
C        5.8512597341    1.1055542531    0.0868645413
C        3.7790521339    0.3245279131    1.0545416343
C        5.6430145516    0.2630463533   -1.0082236152
C        3.5701342767   -0.5278990587   -0.0328433599
C        4.5066246400   -0.5506902702   -1.0771123600
C        2.3326806703   -1.3957109205   -0.1114142168
C        1.0784297599   -0.8460056300   -0.7722951560
O        2.3184521221   -2.5209620057    0.3569035494
O        4.3135322017   -1.3498953081   -2.1668700827
H        5.0674565269    1.7879823898    1.9727290196
H        6.7347232599    1.7331993926    0.1344790155
H        3.0568245790    0.3492734023    1.8638608279
H        6.3723976104    0.2505202613   -1.8084955244
H        1.2779615371   -0.6568097379   -1.8303763783
H        0.7867082397    0.0903659100   -0.2900537536
H        0.2598149488   -1.5658842915   -0.6855293380
H        5.1000841890   -1.3408585621   -2.7371773009
18   

C        4.9704182733    1.0770915496    1.1665850712
C        5.8562885696    1.0786433954    0.0894975088
C        3.8243295764    0.2788919426    1.1243309099
C        5.5874167640    0.2819451068   -1.0266485080
C        3.5543983572   -0.5279086104    0.0145702431
C        4.4403353150   -0.5184515076   -1.0740228776
C        2.2910481144   -1.3567723676   -0.0306313630
C        1.1358696611   -0.9230839669   -0.9213394724
O        2.1822206524   -2.3746476185    0.6332516641
O        4.1963730329   -1.2800905635   -2.1803749313
H        5.1708013907    1.6922922176    2.0366201833
H        6.7477215241    1.6960300573    0.1195555098
H        3.1397571997    0.2786266868    1.9663425750
H        6.2795424152    0.2938573247   -1.8593643005
H        1.4586423168   -0.9048318589   -1.9652998336
H        0.8053741861    0.0777785960   -0.6322847430
H        0.2996506671   -1.6203657394   -0.8196014079
H        4.9510412875   -1.2395795433   -2.7913359647
18   

C        5.0280210142    1.0324124355    1.1990091453
C        5.8703757915    1.0682148079    0.0877958592
C        3.8679040532    0.2546136141    1.1683375815
C        5.5456131663    0.3255921452   -1.0512076430
C        3.5428392847   -0.4978245275    0.0325380724
C        4.3845380058   -0.4552405419   -1.0900515430
C        2.2553888184   -1.2841796603    0.0325155930
C        1.1578173753   -0.9660113012   -0.9733664189
O        2.0621335897   -2.1526924064    0.8700791312
O        4.0933445500   -1.1695050067   -2.2160270422
H        5.2725607060    1.6054382198    2.0863859707
H        6.7724954628    1.6702325468    0.1097051634
H        3.2158150347    0.2273524665    2.0356726421
H        6.2069604942    0.3635588126   -1.9078052352
H        1.4129224503   -1.3877450249   -1.9485360375
H        1.0479935051    0.1172399414   -1.0689095602
H        0.2080391317   -1.3921129592   -0.6388561158
H        4.8203137898   -1.0983504399   -2.8572632258
18   

C        5.0243080327    0.8992323820    1.2660534221
C        5.8425701201    0.9683555343    0.1389919675
C        3.8345499052    0.1689903836    1.2190311664
C        5.4657274449    0.3049754529   -1.0322890742
C        3.4536816969   -0.5034781805    0.0479737210
C        4.2753493428   -0.4295755541   -1.0903248513
C        2.1348636819   -1.2265628262    0.0548249545
C        1.1337676691   -1.0588626129   -1.0803570645
O        1.8274942007   -1.9241431991    1.0129604984
O        3.9438627386   -1.0692820945   -2.2495842044
H        5.3094523405    1.4106371100    2.1786112488
H        6.7670474212    1.5347955907    0.1739122341
H        3.2015228085    0.1196076804    2.0997331935
H        6.1112831516    0.3678001485   -1.8994044093
H        1.3015706110   -1.8313238524   -1.8352793402
H        1.2533254433   -0.0747513808   -1.5410112046
H        0.1145918756   -1.1481435578   -0.6947979787
H        4.6524978635   -0.9635554817   -2.9064852312
18   

C        5.0774744757    0.8531913780    1.2798380369
C        5.8717180065    0.9401276349    0.1381018443
C        3.8596999682    0.1714424311    1.2314795050
C        5.4445841361    0.3401920000   -1.0492059570
C        3.4201689122   -0.4326382186    0.0407205300
C        4.2262763133   -0.3471681254   -1.1118844738
C        2.0824425880   -1.1168180306    0.0737127527
C        1.1435806562   -1.1242273484   -1.1263373339
O        1.6868705618   -1.6163858788    1.1214236485
O        3.8646506911   -0.9334563166   -2.2899987609
H        5.4025460242    1.3136168227    2.2060951874
H        6.8178319797    1.4695282141    0.1746819424
H        3.2514385969    0.1138904524    2.1291089507
H        6.0757895781    0.4130282266   -1.9260523290
H        1.3775590285   -1.9750358472   -1.7714796944
H        1.2542648807   -0.1971569537   -1.6947712137
H        0.1070428632   -1.2070742817   -0.7883373928
H        4.5641815099   -0.8124896448   -2.9540334006
18   

C        5.0832392932    0.7993461119    1.3193285747
C        5.8614343937    0.8881422138    0.1683449516
C        3.8307047940    0.1846207058    1.2692036549
C        5.3837426121    0.3555744578   -1.0304907349
C        3.3329246644   -0.3496816010    0.0655402595
C        4.1303436853   -0.2655956519   -1.0980265958
C        1.9669680649   -0.9783938683    0.1183463243
C        1.1054067466   -1.2043181073   -1.1187758742
O        1.4736853313   -1.2520117208    1.2086311714
O        3.7354299005   -0.7865001237   -2.2955609865
H        5.4473882128    1.2069653182    2.2557480748
H        6.8344862679    1.3660957522    0.2067246802
H        3.2450552430    0.1317256672    2.1819366365
H        6.0050588747    0.4278244498   -1.9144296244
H        1.4573101024   -2.0874648677   -1.6582480418
H        1.1523841612   -0.3307867094   -1.7739999013
H        0.0640152884   -1.3624097305   -0.8249801195
H        4.4294646589   -0.6562077539   -2.9635664660
18   

C        5.1368197030    0.7417164274    1.3248051503
C        5.9095592976    0.8403131354    0.1720256369
C        3.8570325086    0.1876727448    1.2623507863
C        5.3966422917    0.3825856848   -1.0421946133
C        3.3234184494   -0.2794076574    0.0452144916
C        4.1148236762   -0.1761442027   -1.1239602645
C        1.9337491216   -0.8573044862    0.0966843421
C        1.2005333398   -1.4089632267   -1.1209808167
O        1.3396025054   -0.8958518344    1.1707119722
O        3.6851387888   -0.6003462944   -2.3470150162
H        5.5263533252    1.0945460765    2.2731865973
H        6.9041071086    1.2707888350    0.2201114355
H        3.2829164308    0.1269119423    2.1818020125
H        6.0121747577    0.4673552174   -1.9290723131
H        1.7624877134   -2.2430105131   -1.5489828478
H        1.0763607337   -0.6226356165   -1.8699041488
H        0.2104209514   -1.7704852179   -0.8294341942
H        4.3713629378   -0.4426370653   -3.0171391913
18   

C        5.1397877231    0.6656981103    1.3457590798
C        5.9091721704    0.7753119522    0.1906542869
C        3.8354123420    0.1734434769    1.2713793555
C        5.3668889027    0.3953395505   -1.0383998417
C        3.2784060294   -0.2209447857    0.0400085805
C        4.0598206522   -0.0990408625   -1.1310456226
C        1.8700857630   -0.7495810726    0.0729884152
C        1.2751805644   -1.6054388175   -1.0393949357
O        1.1817370469   -0.5623994570    1.0720154821
O        3.5838962277   -0.4285539108   -2.3664823808
H        5.5512119368    0.9616296270    2.3042964974
H        6.9228487189    1.1572926551    0.2480404885
H        3.2596685218    0.0971396133    2.1887460011
H        5.9772941396    0.4933688756   -1.9274429344
H        2.0054646503   -2.3461636417   -1.3749458076
H        0.9841733729   -0.9697398124   -1.8796425154
H        0.3898070525   -2.1321192669   -0.6726163397
H        4.2562505867   -0.2470377060   -3.0446292265
18   

C        4.6335265150    1.9329657482    0.1009107208
C        5.7640531783    1.1272796239   -0.0204197620
C        3.3673870202    1.3994544985   -0.1487914753
C        5.6227838361   -0.2112276886   -0.3952619310
C        3.2150583195    0.0531707736   -0.5233993714
C        4.3595300122   -0.7591788738   -0.6494385320
C        1.8128965991   -0.4423375250   -0.7404684171
C        1.3896361024   -1.8633657338   -0.3895182104
O        0.9522594038    0.3377799710   -1.1334834336
O        4.2774630223   -2.0663389326   -1.0329195675
H        4.7342756257    2.9734456213    0.3887763968
H        6.7480111611    1.5408071987    0.1733748176
H        2.4961073860    2.0396321458   -0.0484069466
H        6.5117169792   -0.8223683364   -0.4895486518
H        1.9523806635   -2.2189320305    0.4774989033
H        1.5780281890   -2.5241083353   -1.2396695166
H        0.3232137812   -1.8862069371   -0.1492269094
H        5.1672917885   -2.4492572254   -1.1135211257
18   

C        4.6040437595    1.9102874379    0.1623826556
C        5.7457844043    1.1231646393    0.0158971271
C        3.3485204632    1.3794519201   -0.1423504704
C        5.6256009669   -0.1942012444   -0.4358556896
C        3.2220406354    0.0596335647   -0.6014095864
C        4.3721082058   -0.7362062398   -0.7439483328
C        1.8346911296   -0.4603524828   -0.8603795496
C        1.3835956477   -1.8134011394   -0.3267805305
O        1.0270533710    0.2333182828   -1.4650992017
O        4.2950534111   -2.0243883088   -1.1885158341
H        4.6885624138    2.9331656102    0.5119262904
H        6.7216464357    1.5339770105    0.2518179083
H        2.4633695467    1.9972465221   -0.0255808819
H        6.5210806352   -0.7932560134   -0.5446110697
H        1.9331683238   -2.0565041118    0.5863691507
H        1.5735699619   -2.5858489816   -1.0764444615
H        0.3142926609   -1.7871536848   -0.1003999582
H        5.1861524883   -2.4000966696   -1.2867326709
18   

C        4.5679257463    1.8360670735    0.2270967959
C        5.7213104567    1.0776275557    0.0272247179
C        3.3209929032    1.3122003974   -0.1228594898
C        5.6202676140   -0.2042629849   -0.5211413439
C        3.2153089642    0.0315659743   -0.6802449048
C        4.3744557919   -0.7364657919   -0.8733559165
C        1.8424448056   -0.5069535345   -0.9982155475
C        1.3215937019   -1.7528401466   -0.2951035454
O        1.1161397421    0.0785887642   -1.7873617398
O        4.3073769997   -1.9908318353   -1.4070563030
H        4.6374099897    2.8312628581    0.6517778607
H        6.6908344239    1.4826993423    0.2967965442
H        2.4257547442    1.9061602765    0.0320157228
H        6.5231020276   -0.7834371773   -0.6695619432
H        1.5646317575   -1.7040376133    0.7693939190
H        1.7818213259   -2.6446081622   -0.7272608933
H        0.2364041386   -1.8218009042   -0.4097874119
H        5.2015304814   -2.3420955318   -1.5548232306
18   

C        4.6408487807    1.8269167711    0.3521228022
C        5.8061447550    1.0976816354    0.1172806246
C        3.4030623344    1.3038490689   -0.0309010369
C        5.7247807617   -0.1543516296   -0.4979945887
C        3.3155562498    0.0559228380   -0.6556509592
C        4.4872359101   -0.6828376291   -0.8825307603
C        1.9654372511   -0.5117718287   -1.0299057302
C        1.3688006094   -1.6438817274   -0.2063447709
O        1.3447822698   -0.0803508760   -1.9876716388
O        4.4348584373   -1.9124749476   -1.4731892349
H        4.6943557773    2.7990987532    0.8291826626
H        6.7688897545    1.5013583088    0.4120518483
H        2.4994758636    1.8766120954    0.1510207077
H        6.6352383812   -0.7142252845   -0.6717889187
H        1.2601701497   -1.3237628735    0.8329959160
H        2.0255083303   -2.5166140911   -0.2442927161
H        0.3871084494   -1.9198789605   -0.6012125394
H        5.3323342531   -2.2405194176   -1.6502848679
18   

C        4.6248927080    1.7745776031    0.4295000564
C        5.8108818659    1.0983577844    0.1446090788
C        3.4005361016    1.2315423130    0.0308123680
C        5.7631497201   -0.1217882260   -0.5346351596
C        3.3466797739    0.0168816565   -0.6579505931
C        4.5387702924   -0.6692183721   -0.9340203196
C        2.0198763456   -0.5797356977   -1.0753633099
C        1.2887687353   -1.5107872670   -0.1210533886
O        1.5206570610   -0.3175839679   -2.1559872953
O        4.5151669310   -1.8729696837   -1.5774577229
H        4.6524098437    2.7216939280    0.9565626283
H        6.7633848242    1.5176181651    0.4506677553
H        2.4818656899    1.7654745954    0.2503193182
H        6.6885774216   -0.6431236776   -0.7453111369
H        1.1278441091   -1.0073845271    0.8355746151
H        1.8904635284   -2.4085705649    0.0435424561
H        0.3221234321   -1.8000720618   -0.5427127971
H        5.4178887490   -2.1576039868   -1.7967116815
18   

C        4.6013716324    1.6753391647    0.5025436560
C        5.8138307963    1.0730992894    0.1679016798
C        3.3982152900    1.0905254321    0.0986739630
C        5.8142441025   -0.1152493537   -0.5669529075
C        3.3916856427   -0.0971020480   -0.6391016682
C        4.6117267088   -0.7057522644   -0.9716488474
C        2.0871838922   -0.7101778706   -1.0964170613
C        1.1378514337   -1.3042146419   -0.0668463392
O        1.7301550443   -0.6361832941   -2.2595425139
O        4.6385397355   -1.8772321511   -1.6716013793
H        4.5923034069    2.5992932648    1.0698365719
H        6.7499990407    1.5259192671    0.4765300192
H        2.4605747179    1.5738448366    0.3520368406
H        6.7603375771   -0.5782306761   -0.8182210090
H        1.0899330735   -0.6621271902    0.8160728255
H        1.5001577686   -2.2919421375    0.2302055260
H        0.1353456610   -1.4033626363   -0.4922293710
H        5.5465012289   -2.0901313438   -1.9430153616
18   

C        4.5873914617    1.5886991719    0.5716897523
C        5.8161099621    1.0561592460    0.1849684702
C        3.4013773660    0.9691332496    0.1695989583
C        5.8506250372   -0.0988832412   -0.5994463005
C        3.4262035409   -0.1879580558   -0.6189376908
C        4.6666301219   -0.7265910575   -1.0032210180
C        2.1378869441   -0.8202344679   -1.0829247623
C        1.0707775069   -1.2012367411   -0.0654620296
O        1.8879807669   -0.9476320896   -2.2702253857
O        4.7368316235   -1.8678566447   -1.7484607290
H        4.5521882821    2.4873880992    1.1772884058
H        6.7388282992    1.5371323498    0.4915172986
H        2.4545656175    1.4088825535    0.4634554804
H        6.8100091876   -0.5082321922   -0.8903009992
H        0.8996234091   -0.3822595331    0.6366390012
H        1.3996361289   -2.0840471890    0.4891541856
H        0.1314909574   -1.4319190079   -0.5759695153
H        5.6446385077   -2.0172981767   -2.0587154828
18   

C        4.5897108032    1.4924399853    0.6488433914
C        5.8231338020    1.0362380333    0.1904395046
C        3.4169433033    0.8414435645    0.2592721180
C        5.8757744288   -0.0761289282   -0.6509550526
C        3.4536729761   -0.2734179294   -0.5920953886
C        4.7061453303   -0.7375481079   -1.0438121552
C        2.1758319672   -0.9312762710   -1.0345160578
C        1.0551792588   -1.1637699644   -0.0303063881
O        1.9925979962   -1.2542376615   -2.1979606306
O        4.8117799803   -1.8411881769   -1.8397649349
H        4.5399444986    2.3563721974    1.3021480993
H        6.7358773708    1.5417239049    0.4872891449
H        2.4671973993    1.2243926945    0.6161819673
H        6.8404318049   -0.4281546502   -0.9946253114
H        0.5355880316   -0.2244121829    0.1738112225
H        1.4702758873   -1.5590480814    0.9006580874
H        0.3397084495   -1.8872114770   -0.4314695832
H        5.7173177117   -1.9358495995   -2.1759416465
18   

C        4.5827593919    1.4232507167    0.7113525455
C        5.8178518503    1.0450483832    0.1942981652
C        3.4274337081    0.7374722381    0.3308361422
C        5.8902287866   -0.0256949365   -0.6963710680
C        3.4775569990   -0.3374059328   -0.5740333023
C        4.7396751047   -0.7240199352   -1.0828173639
C        2.2133872515   -1.0303569648   -0.9864765866
C        1.0279515061   -1.0931462401   -0.0309875634
O        2.0871653499   -1.5527736810   -2.0846796626
O        4.8845318401   -1.7855369506   -1.9282165998
H        4.5175157843    2.2539719261    1.4051488229
H        6.7171242658    1.5777769842    0.4845926970
H        2.4799357770    1.0676973443    0.7417605947
H        6.8580797099   -0.3176046838   -1.0845293422
H        0.4801138906   -0.1477338625   -0.0566293422
H        1.3779664028   -1.2856188956    0.9866827544
H        0.3544277427   -1.9024786706   -0.3270480092
H        5.7936338401   -1.8374152234   -2.2631088833
18   

C        4.6208623439    1.3811873268    0.7153257468
C        5.8379112109    1.0473081754    0.1332140283
C        3.4647988220    0.6795402156    0.3686603171
C        5.8912426522    0.0060059187   -0.7909923415
C        3.4892121383   -0.3712249734   -0.5686232400
C        4.7407073353   -0.7089314612   -1.1470070375
C        2.2250232610   -1.0910941863   -0.9251415909
C        0.9835797429   -0.9557882253   -0.0497908789
O        2.1364666913   -1.8138890230   -1.9086446949
O        4.8849686329   -1.7314433073   -2.0391971860
H        4.5697746788    2.1893155660    1.4364808882
H        6.7379925516    1.5915879268    0.3985391954
H        2.5378414964    0.9822935251    0.8417751965
H        6.8465547630   -0.2496191612   -1.2322118583
H        0.5461352331    0.0379512529   -0.1758742820
H        1.2462280645   -1.1127442906    0.9997031487
H        0.2410997440   -1.7058154770   -0.3374875545
H        5.7953778981   -1.7747442347   -2.3709672760
18   

C        4.6296201414    1.3631536124    0.7326777354
C        5.8322207195    1.0850062241    0.0954470382
C        3.4864214599    0.6250096212    0.4213919426
C        5.8829988393    0.0661346891   -0.8527033389
C        3.5073892624   -0.4113221858   -0.5332159435
C        4.7452474284   -0.6839005854   -1.1766032459
C        2.2589105601   -1.1798849009   -0.8387197265
C        0.9501180351   -0.8554550356   -0.1252593113
O        2.2285397163   -2.0876898648   -1.6594186106
O        4.8890443415   -1.6621163721   -2.1171689513
H        4.5801025836    2.1545147293    1.4723127156
H        6.7226535864    1.6565266916    0.3347957945
H        2.5753352972    0.8835828391    0.9479433828
H        6.8262915882   -0.1410746601   -1.3425140328
H        0.6576813508    0.1772122461   -0.3326084896
H        1.0667096337   -0.9982212544    0.9522099109
H        0.1566414500   -1.5196084007   -0.4802672797
H        5.8023437089   -1.6989125710   -2.4413936233
