64

C      3.57716    5.34648    4.49044
C      2.25376    4.93847    4.32155
C     -0.18557    0.07311   -2.83771
C      4.64741    4.51715    4.15347
C     -0.74024    0.13232   -1.54851
C      3.08239    2.81297    3.46039
C      1.48131   -0.04465   -0.56986
C      2.01760    3.65427    3.80527
C      1.19605   -0.02485   -2.99163
C      2.01770   -0.09544   -1.85394
C      4.42289    3.22389    3.61566
C      0.09199    0.08005   -0.42240
C     -1.07352    2.00009    3.05942
C     -1.49732    3.28167    3.27663
C      0.66457    3.15710    3.56783
C      0.27881    0.48204   -6.17195
C      3.46660   -0.26298   -2.26578
C      3.45206    0.17591   -3.74957
C      2.01261   -0.09645   -4.27037
C     -2.80688    3.98443    3.21077
C      7.61472    2.73845    4.50178
C      4.91974    1.02576    1.21892
C     -1.86042    0.80761    2.60828
C      1.58706    0.85371   -5.39483
C      6.84074    2.89049    3.18435
C      5.23558    1.05384    2.72042
C     -1.70521    0.52045    1.11020
N      0.30404    1.94317    3.26091
N      5.47389    2.39241    3.25594
O     -0.27384   -0.61544   -5.86266
O     -0.07127    1.32984   -7.03592
O     -0.38698    4.03753    3.60916
O     -0.36477    0.12678    0.88416
H      3.78823    6.33301    4.89700
H      1.42558    5.59072    4.57728
H     -0.81346    0.07507   -3.72426
H      5.65554    4.87986    4.31722
H     -1.81783    0.20639   -1.43880
H      2.82875    1.85070    3.03631
H      2.09944   -0.08791    0.32365
H      4.16204    0.31842   -1.64889
H      3.75906   -1.31928   -2.17213
H      3.64556    1.25477   -3.80470
H      4.21762   -0.32537   -4.35221
H      1.93627   -1.11958   -4.66153
H     -3.05355    4.46418    4.16513
H     -2.80546    4.76052    2.43661
H     -3.59831    3.27028    2.97143
H      7.12088    3.28203    5.31256
H      7.67136    1.68442    4.79375
H      8.63710    3.12164    4.39912
H      4.01839    1.59838    0.98727
H      5.74612    1.45072    0.63877
H      4.76164   -0.00278    0.87830
H     -1.53579   -0.07522    3.16856
H     -2.92482    0.96102    2.81895
H      2.39301    0.90599   -6.14026
H      1.47710    1.87273   -5.00106
H      7.35916    2.33804    2.39355
H      6.83922    3.93704    2.86159
H      6.13426    0.45912    2.91861
H      4.43273    0.57486    3.28821
H     -2.40109   -0.27793    0.81013
H     -1.94741    1.41983    0.52721
