27   

C        2.4506187687    1.0384553598   -0.4425084286
C        1.4321088122    0.2124065726   -0.9018016827
C        0.6507466279   -4.0845351414   -1.5569793402
C        2.2679076512    1.7788023746    0.7258688686
C        1.5952384577   -2.6943461989   -0.0816760992
C        0.4730904664   -2.8253622324   -0.8622485340
C        0.2555276232    0.1343142891   -0.1500408049
C        0.1294019408    0.9621629504    1.0040155606
C        1.8483864728   -4.5990342927   -1.1526391384
C       -0.7348448637   -1.9778032921   -1.0471709078
C       -2.1387383945   -0.1132653389   -0.2078832494
C       -2.1305664877    0.1539149809    1.3009403511
N        1.1316118669    1.7460417021    1.4294834223
N       -0.8344802293   -0.6707927700   -0.5504795173
O       -1.7234988655   -2.4605738505   -1.6018475186
O        2.4461245586   -3.7577188573   -0.2524635373
O       -1.0487630410    1.0080640733    1.7253668670
Br       2.5893395694   -6.2551859717   -1.7435552085
H        3.3854439985    1.1230550534   -0.9832675843
H        1.5511460994   -0.3481440721   -1.8238936690
H       -0.0421271122   -4.5380932262   -2.2590987988
H        3.0734189957    2.4149277286    1.0743083376
H        1.7960244053   -1.8831650475    0.6078645555
H       -2.9616193452   -0.7931852855   -0.4507099393
H       -2.3021481638    0.8194769107   -0.7575753028
H       -3.0821363274    0.6133138085    1.5856698602
H       -2.0541354719   -0.8002483827    1.8323623018
27   

C        2.4625379657    0.9273082543   -0.4423236714
C        1.4287621451    0.1123430217   -0.8860386112
C        0.7507305174   -3.9726024225   -1.7138085359
C        2.2843057681    1.7138250020    0.6955723029
C        1.4512520578   -2.7821613440    0.0481165459
C        0.4406688394   -2.8329804391   -0.8773501237
C        0.2380279892    0.0936245857   -0.1516755714
C        0.1224268010    0.9610249965    0.9746515747
C        1.9178732438   -4.5019974480   -1.2427759948
C       -0.7867114330   -2.0086418702   -1.0270931651
C       -2.1654581034   -0.1158253642   -0.2029893103
C       -2.1474728660    0.1956612664    1.2965836927
N        1.1392712396    1.7340418065    1.3851791935
N       -0.8695493401   -0.6974445013   -0.5386906355
O       -1.7945065342   -2.5112702930   -1.5253022508
O        2.3689758726   -3.7795785888   -0.1690019701
O       -1.0580807045    1.0552799143    1.6869814352
Br       2.7963975633   -6.0364878737   -1.9599931885
H        3.4060220580    0.9676467023   -0.9730620257
H        1.5487266849   -0.4814977630   -1.7867758289
H        0.1602421003   -4.3455021835   -2.5448312832
H        3.1015330142    2.3418180975    1.0312357608
H        1.5209697912   -2.0669473685    0.8600265220
H       -2.9972468737   -0.7933821424   -0.4205725659
H       -2.3226533150    0.8022076589   -0.7785895675
H       -3.0941600703    0.6700623814    1.5727770192
H       -2.0739401998   -0.7425127112    1.8561550032
27   

C        2.4470790027    0.8782837535   -0.4665477310
C        1.4035743181    0.0672176298   -0.8935239262
C        0.8634441846   -3.7965087446   -1.8655001196
C        2.2775240066    1.6924400833    0.6524803132
C        1.3265356065   -2.8657767764    0.1195690725
C        0.4210063895   -2.8098804713   -0.9054660756
C        0.2096542088    0.0805655248   -0.1629240747
C        0.1064659486    0.9720821964    0.9462153738
C        2.0055153966   -4.3484622577   -1.3587807159
C       -0.8359345832   -2.0217124363   -1.0067229410
C       -2.1996077778   -0.1118042751   -0.1918121053
C       -2.1645141968    0.2277139805    1.3007906297
N        1.1323530708    1.7419415534    1.3401332576
N       -0.9099665978   -0.7043726753   -0.5339457792
O       -1.8608175294   -2.5567581415   -1.4279679523
O        2.3132481966   -3.7818244395   -0.1485188245
O       -1.0702112462    1.0935679826    1.6604936517
Br       3.0255142337   -5.7250841674   -2.1985575117
H        3.3915902944    0.8939698925   -0.9967167170
H        1.5208224478   -0.5451623659   -1.7817864754
H        0.3735702665   -4.0632466693   -2.7964704419
H        3.1022212461    2.3178584156    0.9743841632
H        1.2724592309   -2.2769966927    1.0287405787
H       -3.0369411929   -0.7892054774   -0.3871793167
H       -2.3604603380    0.7961493536   -0.7821698799
H       -3.1073201689    0.7088348887    1.5785886978
H       -2.0853110817   -0.6995000871    1.8775395716
27   

C        2.4552350421    0.7963861681   -0.4557067001
C        1.3995296753   -0.0118085358   -0.8566631658
C        0.9701230866   -3.6484012228   -1.8629582187
C        2.2943430455    1.6574676007    0.6283382675
C        1.1914135193   -3.0201275735    0.2780025072
C        0.3974508850   -2.8307478625   -0.8175879479
C        0.2004761778    0.0512889262   -0.1359624199
C        0.1093828328    0.9873081090    0.9376266996
C        2.0767167489   -4.2423627101   -1.3251227691
C       -0.8776963695   -2.0641840818   -0.8981090442
C       -2.2139326574   -0.1033392830   -0.1589535629
C       -2.1722697836    0.2925484859    1.3190319744
N        1.1465595325    1.7548655910    1.3061317259
N       -0.9336736928   -0.7269792307   -0.4819229592
O       -1.9176971618   -2.6248877223   -1.2379990768
O        2.2370258802   -3.8594527700   -0.0176977340
O       -1.0668424700    1.1578285478    1.6424477779
Br       3.2323240233   -5.4479902831   -2.2479304269
H        3.4027341543    0.7733195301   -0.9801731889
H        1.5139812063   -0.6572709841   -1.7209414409
H        0.5883322454   -3.7840672877   -2.8695476399
H        3.1284824085    2.2806588540    0.9295426057
H        1.0189653849   -2.5749884208    1.2517751064
H       -3.0620771841   -0.7742841166   -0.3278004223
H       -2.3628157118    0.7838880078   -0.7829881543
H       -3.1082810362    0.7963427070    1.5790053589
H       -2.1036253696   -0.6124605090    1.9312264036
27   

C        2.4392078590    0.7515258008   -0.4962578721
C        1.3671903438   -0.0478638913   -0.8706576363
C        1.0042176279   -3.4868669260   -1.8597470642
C        2.3018962414    1.6374892072    0.5705904931
C        1.0684362295   -3.1764234084    0.3602748619
C        0.3463587292   -2.8394739172   -0.7468406872
C        0.1758630464    0.0483560714   -0.1412404428
C        0.1099774034    1.0081941751    0.9134696636
C        2.0872957590   -4.1370624581   -1.3391409998
C       -0.9420306558   -2.0837557990   -0.7849409179
C       -2.2392644768   -0.0645927169   -0.1387268706
C       -2.1798991387    0.3608082329    1.3300088617
N        1.1619738075    1.7677976005    1.2558372128
N       -0.9738261370   -0.7212096565   -0.4560727805
O       -2.0006725493   -2.6673462019   -1.0039991188
O        2.1514066317   -3.9483413567    0.0180545556
O       -1.0562921263    1.2122508383    1.6262017471
Br       3.3312772662   -5.1751658135   -2.3467238568
H        3.3814668618    0.7019213644   -1.0281756253
H        1.4642911984   -0.7108601857   -1.7227750163
H        0.6942317106   -3.4796863203   -2.8994223498
H        3.1485476607    2.2533682005    0.8511956323
H        0.8205256717   -2.8811702507    1.3738286650
H       -3.1035581689   -0.7184723882   -0.2913369972
H       -2.3725520880    0.8129277273   -0.7797990270
H       -3.1043776744    0.8876388230    1.5854559794
H       -2.1236072035   -0.5323221297    1.9606129943
27   

C        2.4465559444    0.6688632599   -0.5517155256
C        1.3511232712   -0.1112433841   -0.8984794488
C        0.9548065814   -3.3909701930   -1.8470172683
C        2.3461511358    1.5711113200    0.5054904781
C        0.9707426780   -3.3846212515    0.3945674313
C        0.2776698084   -2.8912907385   -0.6699280488
C        0.1750927121    0.0193803724   -0.1516140758
C        0.1468945189    0.9953816213    0.8905033689
C        2.0216558750   -4.1159616572   -1.3966901607
C       -1.0047449091   -2.1208092699   -0.6272724720
C       -2.2360568372   -0.0230436677   -0.1241253329
C       -2.1584525402    0.4214746132    1.3376307722
N        1.2203042589    1.7364856692    1.2059527567
N       -0.9958101250   -0.7315595538   -0.4305164626
O       -2.0853172415   -2.7023094449   -0.6733534962
O        2.0556362547   -4.1143992889   -0.0257294670
O       -1.0039332261    1.2369846027    1.6171842053
Br       3.2829434649   -5.0160436546   -2.5099042553
H        3.3788896609    0.5914908920   -1.0975301361
H        1.4189022463   -0.7841458679   -1.7440806722
H        0.6702491448   -3.2400676859   -2.8829320443
H        3.2106006382    2.1713408921    0.7649038344
H        0.7011921186   -3.2284475864    1.4332201589
H       -3.1258829344   -0.6427692626   -0.2723207512
H       -2.3346757837    0.8498269697   -0.7777469283
H       -3.0627619549    0.9852356091    1.5862593804
H       -2.1329599132   -0.4636346050    1.9814330948
27   

C        2.2240204389    1.6210838649   -0.0995975542
C        1.5560582627    0.4458028921    0.2187981865
C        1.0652366249   -1.6666904281   -2.3015762678
C        1.4983156366    2.7432713768   -0.4953598495
C        2.0106590930   -2.8991593359   -0.6836494761
C        0.8692632937   -2.2134426087   -0.9767355599
C        0.1611885110    0.4211444124    0.1095307273
C       -0.5055613363    1.6255131631   -0.2674134145
C        2.3086715341   -2.0668796583   -2.7008759309
C       -0.3122911924   -2.0128148807   -0.0843297102
C       -1.9322644318   -0.4354657614    0.9457372070
C       -2.6275772974    0.4885005276   -0.0569667711
N        0.1640182610    2.7485241452   -0.5704382771
N       -0.6057151601   -0.7331353030    0.4114917677
O       -1.1123461569   -2.9198301643    0.1307817775
O        2.9051870718   -2.8219528367   -1.7225709700
O       -1.8850673768    1.6951901161   -0.3203027237
Br       3.1144936481   -1.6318317313   -4.3745048527
H        3.3038199698    1.6806846014   -0.0396348984
H        2.1162862668   -0.4179296119    0.5551539520
H        0.3718163616   -1.0549872665   -2.8691543198
H        2.0345038202    3.6520915667   -0.7431681804
H        2.1934129595   -3.4260277389    0.2463575334
H       -1.8384685456    0.0639453993    1.9155263542
H       -2.5392606621   -1.3333818267    1.0974646759
H       -2.7755727874   -0.0502031505   -0.9986143833
H       -3.6157903333    0.7547200691    0.3301841793
27   

C        2.1173027144    1.7050626150   -0.3748031683
C        1.4903540257    0.5031899037   -0.0732534106
C        0.8148844011   -1.3976071538   -2.5511657241
C        1.3514449878    2.8494501037   -0.5891032544
C        1.7751605004   -2.9532407808   -1.2477093795
C        0.6989997579   -2.1155184366   -1.2998871418
C        0.0917566626    0.4759258490   -0.0152745945
C       -0.6127791664    1.7014044492   -0.2121409560
C        1.9528098877   -1.8571697378   -3.1510753125
C       -0.3403489719   -1.9698123172   -0.2406036901
C       -1.8971452181   -0.4665142249    0.9828948437
C       -2.6960687641    0.5332215711    0.1431444049
N        0.0177925515    2.8499436332   -0.5032464760
N       -0.6327340865   -0.7049037095    0.2915091136
O       -1.0294220677   -2.9255795242    0.1109736875
O        2.5568743655   -2.8085624485   -2.3677228317
O       -1.9880610680    1.7652572392   -0.0934541089
Br       2.6209600948   -1.2574495235   -4.8343778776
H        3.1966122100    1.7676527435   -0.4404687756
H        2.0863057853   -0.3807489442    0.1212018482
H        0.1420751931   -0.6402022169   -2.9397928376
H        1.8557167070    3.7792615596   -0.8258074226
H        1.9889506413   -3.6348975762   -0.4317506512
H       -1.7042735327   -0.0535003917    1.9783182509
H       -2.4858923521   -1.3799377734    1.1124030166
H       -2.9430700622    0.0760011610   -0.8205133543
H       -3.6377083829    0.7552773553    0.6544103481
27   

C        2.0315353955    2.2310344168    0.4006917354
C        1.5858821606    0.9195289129    0.4996542740
C        1.8425921031   -0.8168876153   -2.0658989403
C        1.1289368214    3.2459585957    0.0884215760
C        2.6322404356   -2.5340160297   -0.8506429574
C        1.5436619145   -1.7172730717   -0.9719578377
C        0.2325414812    0.6545391789    0.2576281762
C       -0.6295009040    1.7574749860   -0.0188938430
C        3.0906307268   -1.1541575304   -2.5073175197
C        0.3290972189   -1.8118124319   -0.1172267022
C       -1.7098580484   -0.6947646547    0.7615240264
C       -2.4927511157    0.2302917358   -0.1740733950
N       -0.1725421254    3.0161936257   -0.1106711230
N       -0.3103074262   -0.6529287035    0.3469612292
O       -0.1856667723   -2.9017984157    0.1307515879
O        3.5930752868   -2.1997594446   -1.7737862870
O       -1.9892631701    1.5798588616   -0.1882299571
Br       4.0138347886   -0.2930853739   -3.9376845373
H        3.0725758375    2.4781814599    0.5689666740
H        2.2809542394    0.1320097260    0.7682688172
H        1.2111843249   -0.0279764198   -2.4615659408
H        1.4929431490    4.2640818122    0.0123133477
H        2.7268809532   -3.3348187709   -0.1252397984
H       -1.8018348372   -0.3506416561    1.7967872182
H       -2.1336412619   -1.7023804811    0.7063500595
H       -2.4535476576   -0.1719414850   -1.1915880542
H       -3.5423070960    0.2441161809    0.1352149358
27   

C        2.2407963948    1.7141414162    0.3008475241
C        1.5917986649    0.5141747663    0.5608384151
C        1.9438696423   -1.6859263252   -1.5296249934
C        1.5484134256    2.7548376227   -0.3159786284
C        2.0959533606   -3.4443754315   -0.1382302824
C        1.3037925951   -2.3655411756   -0.4213422423
C        0.2545351156    0.3814401319    0.1691510038
C       -0.3901437663    1.5095468428   -0.4197486830
C        3.0791469254   -2.3931803702   -1.8074918473
C        0.0222769917   -2.1031460243    0.2842891723
C       -1.9146149959   -0.5844939386    0.6208923208
C       -2.4339940262    0.2324129805   -0.5657682007
N        0.2613118856    2.6575851221   -0.6631142028
N       -0.4869409433   -0.8026096072    0.4084429355
O       -0.6524201854   -3.0356222783    0.7230644259
O        3.1944260487   -3.4684638827   -0.9628942084
O       -1.7313809298    1.4765961600   -0.7503364493
Br       4.3305509021   -1.9554098834   -3.1794478600
H        3.2786149265    1.8555103295    0.5767663183
H        2.1186668067   -0.2900636422    1.0628296606
H        1.5995116221   -0.7973749014   -2.0488185172
H        2.0698066000    3.6840498570   -0.5149275951
H        1.8861491950   -4.1824731803    0.6285610503
H       -2.0728882521   -0.0366451080    1.5555031400
H       -2.4755578034   -1.5223507178    0.6831630540
H       -2.3409479844   -0.3636724389   -1.4793751390
H       -3.4974704656    0.4418658329   -0.4154435717
27   

C        2.0926419174    2.0891502812    0.5865043074
C        1.5539468544    0.8216009738    0.7655932406
C        2.1850592569   -1.2428649190   -1.3676155412
C        1.3159847580    3.0957884938    0.0147266709
C        2.2635820606   -3.2101070061   -0.2842429381
C        1.5226408873   -2.0611816056   -0.3701565069
C        0.2414864450    0.5898443206    0.3387137882
C       -0.4972786854    1.6862619829   -0.1967452009
C        3.2849552202   -1.9452419635   -1.7715035639
C        0.2394416862   -1.9101261312    0.3632556101
C       -1.8340297155   -0.5905729573    0.7101493470
C       -2.4167701759    0.2410852800   -0.4366569740
N        0.0487118880    2.9010992130   -0.3631318506
N       -0.3913240781   -0.6665130093    0.5041138487
O       -0.3231616892   -2.8980220499    0.8392607729
O        3.3567344769   -3.1466151164   -1.1136795063
O       -1.8268344051    1.5508828383   -0.5479463429
Br       4.5394452746   -1.3519269315   -3.0808655047
H        3.1082116525    2.3093613718    0.8919757967
H        2.1439063411    0.0403272052    1.2330863780
H        1.8760945007   -0.2741068820   -1.7461771339
H        1.7516114700    4.0789838115   -0.1209808861
H        2.0210907016   -4.0599201631    0.3450850458
H       -2.0490554965   -0.1132978645    1.6717480085
H       -2.3055135853   -1.5785463623    0.7113683188
H       -2.2655421532   -0.2936846213   -1.3799163279
H       -3.4956200312    0.3468665624   -0.2869445091
27   

C        2.3488987723    1.8457775418   -0.4836965016
C        1.5361546262    0.7899001728   -0.8766161142
C        2.1647756019   -1.9203339766    0.3418842074
C        1.9240155652    2.7056984033    0.5286540450
C        1.3887264879   -3.6127286648   -0.9143624988
C        1.0961087892   -2.3214185667   -0.5555801647
C        0.3162695158    0.6104557789   -0.2163923802
C       -0.0637482993    1.5625892066    0.7747091737
C        3.0297431822   -2.9755557652    0.4082420729
C       -0.2114801005   -1.7240833468   -0.9375628832
C       -1.9885520917   -0.0786276858   -0.4037699582
C       -2.1674100968    0.4045236141    1.0394026614
N        0.7427917949    2.5713463070    1.1399370674
N       -0.5811631135   -0.4230804107   -0.5727723338
O       -1.0283310265   -2.3917337384   -1.5756158390
O        2.5799664649   -4.0157353275   -0.3625649162
O       -1.3018423457    1.5036915681    1.3860946474
Br       4.6254818525   -3.0154525828    1.4535211361
H        3.3076468722    2.0156130354   -0.9581888735
H        1.8456490770    0.1284454829   -1.6793383214
H        2.2682985799   -0.9926808099    0.8936639302
H        2.5708660856    3.5227553417    0.8267584759
H        0.7654245313   -4.2424224466   -1.5406080634
H       -2.6484088061   -0.9339935073   -0.5811636409
H       -2.2663324734    0.7136172482   -1.1065839570
H       -3.2081723300    0.7092889969    1.1859946433
H       -1.9683280560   -0.4274244133    1.7226344363
27   

C        2.3750413440    1.7406372158   -0.4535420174
C        1.5419432735    0.6953408919   -0.8306745968
C        2.0452120019   -1.9952586355    0.4807010344
C        1.9546692108    2.6414113793    0.5238572113
C        1.4925105914   -3.5225807487   -1.0722985548
C        1.0552101383   -2.3484953684   -0.5185140411
C        0.3036118270    0.5673047770   -0.1913961488
C       -0.0663403919    1.5570286897    0.7668553463
C        3.0110182930   -2.9596162017    0.4217919629
C       -0.2666874435   -1.7698734242   -0.8720753403
C       -2.0168931079   -0.0814909053   -0.3750842638
C       -2.1926058383    0.4486000464    1.0512794905
N        0.7597165251    2.5554912890    1.1166064390
N       -0.6150803320   -0.4557536946   -0.5315160724
O       -1.1103521121   -2.4572747123   -1.4506326085
O        2.6969819107   -3.8974459200   -0.5285051764
O       -1.3122517290    1.5453835186    1.3643036077
Br       4.5715627284   -3.0107674990    1.5182770374
H        3.3466573741    1.8705472018   -0.9142725161
H        1.8519010029    0.0057081537   -1.6086928851
H        2.0316473201   -1.1509253467    1.1620122437
H        2.6173653352    3.4502566361    0.8092734841
H        0.9610805369   -4.0872185625   -1.8311158860
H       -2.6921436758   -0.9295615004   -0.5274289830
H       -2.2796181555    0.6934952254   -1.1024569245
H       -3.2290681507    0.7732380144    1.1849962784
H       -2.0073808899   -0.3641812895    1.7609685566
27   

C        2.4641025349    1.3595796478   -0.3494426603
C        1.5432627522    0.4007346185   -0.7511627998
C        1.7875282751   -2.3404892745    0.5763695552
C        2.1236778527    2.2682991973    0.6511805434
C        1.3228314152   -3.6176222767   -1.2136926912
C        0.8356822240   -2.5612609668   -0.4937184315
C        0.2975865301    0.3649068046   -0.1137177579
C        0.0164714666    1.3570244946    0.8720470384
C        2.7806287362   -3.2620094095    0.4007778256
C       -0.4657813573   -1.9123995073   -0.8005690969
C       -2.0704845609   -0.0854257080   -0.2923917367
C       -2.1913572857    0.4195546085    1.1483144294
N        0.9259125975    2.2712829845    1.2444215609
N       -0.7053756540   -0.5706791652   -0.4712064192
O       -1.3866784194   -2.5618310757   -1.2979353571
O        2.5189820920   -4.0481928795   -0.6929948481
O       -1.2228425206    1.4338657527    1.4782494073
Br       4.3163021949   -3.4394931286    1.5188673508
H        3.4437464577    1.4154731089   -0.8080899168
H        1.7940344659   -0.2928234797   -1.5464425679
H        1.7328001682   -1.6007300378    1.3684739371
H        2.8544281816    3.0086561006    0.9557174629
H        0.8325525364   -4.0586553172   -2.0750239515
H       -2.8171816359   -0.8676667963   -0.4616684756
H       -2.2719922970    0.7282944058   -0.9966214423
H       -3.1970113696    0.8231049295    1.3008205272
H       -2.0664353487   -0.4236811467    1.8353368831
27   

C        2.4178626464    1.6201617946   -0.2759093196
C        1.5957083933    0.5608863976   -0.6369639774
C        1.8398096738   -2.0311715181    1.0672396523
C        1.9366599788    2.6071448231    0.5822494177
C        1.8319544537   -3.2759625070   -0.8033629504
C        1.0768531548   -2.3677677302   -0.1165150068
C        0.3025014859    0.5074063566   -0.1028299834
C       -0.1220251516    1.5791601727    0.7382133706
C        2.9972238190   -2.7530504053    0.9931165050
C       -0.2577527185   -1.8825736840   -0.5610110395
C       -2.0114793663   -0.1283526420   -0.4042271452
C       -2.2806963428    0.5207464998    0.9559762774
N        0.6937676559    2.5909950017    1.0733350652
N       -0.6080018412   -0.5310338669   -0.4270942484
O       -1.1085647162   -2.6669856154   -0.9798521902
O        3.0138860038   -3.5179141585   -0.1463985365
O       -1.4101703801    1.6339202923    1.2349632877
Br       4.4002391115   -2.7047508182    2.2849813313
H        3.4287912369    1.6938616187   -0.6576877572
H        1.9591122065   -0.1933757270   -1.3257397252
H        1.5596129946   -1.3432933466    1.8583872311
H        2.5915547479    3.4261953000    0.8563582048
H        1.5406994005   -3.7409718267   -1.7389837410
H       -2.6925255789   -0.9746519840   -0.5380265144
H       -2.2064659540    0.5873360667   -1.2094659161
H       -3.3194635748    0.8633840553    0.9875485999
H       -2.1566058590   -0.2303432232    1.7428081081
27   

C        2.4516100430    1.2269474361    0.3477017641
C        1.5720371504    0.2347692376   -0.0651344126
C        0.9878015865   -2.0970254895    2.0393588938
C        1.9573600637    2.3801781246    0.9542269732
C        1.4097770378   -3.4085873868    0.2666026006
C        0.5313179284   -2.4659790496    0.7164593656
C        0.2031566796    0.4185031084    0.1641538778
C       -0.2197472154    1.6452059603    0.7585091874
C        2.1062328117   -2.8436375894    2.2794218610
C       -0.6277457944   -1.9230713458   -0.0486464584
C       -2.0653444385    0.0354711748   -0.5756960328
C       -2.5120991997    0.9020490755    0.6042993336
N        0.6517292510    2.5882527243    1.1492712269
N       -0.7678294744   -0.5386674199   -0.2287227274
O       -1.5308834224   -2.6584041054   -0.4430041028
O        2.3829169252   -3.6514503650    1.2049265727
O       -1.5595754254    1.9278165446    0.9444153164
Br       3.1486175205   -2.7706603403    3.8755748589
H        3.5192027764    1.1199222366    0.1996147996
H        1.9531029617   -0.6496260238   -0.5620885609
H        0.5419240546   -1.3699391864    2.7101093496
H        2.6570366215    3.1442245107    1.2729027446
H        1.3527845141   -3.8948913635   -0.7010800663
H       -2.8255556862   -0.7272324052   -0.7708884855
H       -1.9714573671    0.6474433786   -1.4786482589
H       -3.4696434574    1.3713994448    0.3589353345
H       -2.6717754448    0.2629742680    1.4788205318
27   

C        2.4934894200    1.2183875975   -0.1360597724
C        1.5545660327    0.2843759212   -0.5542892682
C        1.2652672859   -2.4187192245    1.3542940322
C        2.1119894968    2.2426202181    0.7288443683
C        1.5458415046   -3.2071001642   -0.7267317654
C        0.6610800771   -2.5118927374    0.0432518535
C        0.2459973327    0.3919945891   -0.0703565800
C       -0.0677840581    1.4926070603    0.7824303154
C        2.4654927011   -3.0652531156    1.2695199594
C       -0.6336252736   -1.9108334344   -0.3984702757
C       -2.1095427605    0.0860021744   -0.4850250240
C       -2.3600593600    0.7331938042    0.8791530327
N        0.8589570208    2.3816943810    1.1722594536
N       -0.7792436158   -0.5156278145   -0.4399058896
O       -1.6230648122   -2.6072845595   -0.6105624752
O        2.6567772758   -3.5544351004    0.0017612930
O       -1.3566071865    1.7044685365    1.2349965128
Br       3.7112268773   -3.2545491838    2.7019851498
H        3.5201283111    1.1659032034   -0.4771927996
H        1.8422351047   -0.4947351732   -1.2494971245
H        0.8573709623   -1.9293271034    2.2325192816
H        2.8571542191    2.9620239205    1.0482929322
H        1.3991078702   -3.4454011124   -1.7743895333
H       -2.8978380715   -0.6437601558   -0.6942108629
H       -2.1476299504    0.8441002991   -1.2740403681
H       -3.3399558504    1.2200083831    0.8676955425
H       -2.3874840219   -0.0469634358    1.6468897772
27   

C        2.3742124262    1.0106745467    0.2920805011
C        1.5191976228   -0.0444868087    0.5825434062
C        1.8559347015   -3.4650507821    0.5832673523
C        1.8987094704    2.1103273411   -0.4195928784
C        1.3593169734   -2.8847797976   -1.5242594599
C        0.8600787442   -2.8361563108   -0.2572634838
C        0.1981278016    0.0214555705    0.1260964416
C       -0.2157831086    1.2020745913   -0.5625223387
C        2.8900179515   -3.8100843177   -0.2402614071
C       -0.5006478667   -2.3680094688    0.1542464646
C       -2.1201894471   -0.5190827985    0.5126472991
C       -2.4467224493    0.2890164427   -0.7446130375
N        0.6311568556    2.2078145634   -0.8310962810
N       -0.7493811963   -1.0047874200    0.3746104253
O       -1.4402620728   -3.1560445216    0.2176174318
O        2.6099444698   -3.4522758989   -1.5341796190
O       -1.5249904161    1.3729225977   -0.9719478847
Br       4.4942524649   -4.6776900564    0.3200344234
H        3.4069771549    0.9948962049    0.6181085903
H        1.8800192360   -0.8806627499    1.1682503119
H        1.7953669139   -3.6463636218    1.6511254392
H        2.5790328256    2.9248524235   -0.6399400963
H        0.8394744775   -2.5295721544   -2.4071176262
H       -2.1995455603    0.1175938924    1.3998877020
H       -2.8472733096   -1.3290416328    0.6272257605
H       -2.4335756022   -0.3771044599   -1.6133246535
H       -3.4591912203    0.6940970387   -0.6538674612
27   

C        2.3640859063    1.0448702031    0.2493009765
C        1.5163344456   -0.0099383519    0.5608947676
C        1.8408207183   -3.5912265717    0.5773942880
C        1.8794754439    2.1298612053   -0.4786094896
C        1.3704276319   -2.7278819763   -1.4382702664
C        0.8732864465   -2.8208125590   -0.1714222059
C        0.1919330437    0.0420693665    0.1093599428
C       -0.2307597668    1.2075534224   -0.5984981379
C        2.8581249914   -3.8750812669   -0.2894337671
C       -0.4637155455   -2.3542933068    0.3054128386
C       -2.1280737816   -0.5183271953    0.4965341474
C       -2.4493904225    0.2683925943   -0.7760671865
N        0.6099636662    2.2127512658   -0.8877786137
N       -0.7480139844   -0.9838417699    0.3872977289
O       -1.3606336980   -3.1623726954    0.5332638816
O        2.5947342434   -3.3436163876   -1.5263470576
O       -1.5415673013    1.3625871717   -1.0077888683
Br       4.4204050408   -4.8803373365    0.1454352058
H        3.3981569149    1.0402326451    0.5716751309
H        1.8854286892   -0.8363674160    1.1574270659
H        1.7704079914   -3.9031934368    1.6141117739
H        2.5543699293    2.9444613795   -0.7148471064
H        0.8674281916   -2.2400512949   -2.2658801044
H       -2.2331951983    0.1269819974    1.3747726922
H       -2.8429883750   -1.3400512491    0.6038721420
H       -2.4145676407   -0.4089090513   -1.6354592115
H       -3.4690112071    0.6592398172   -0.7047914752
27   

C        2.3411767382    1.1573239628    0.2379919430
C        1.5410753628    0.0701516113    0.5641007573
C        1.9141759055   -3.7086759141    0.5202838652
C        1.8076109890    2.2122533020   -0.5002013656
C        1.5425922255   -2.5238128568   -1.3466547309
C        0.9999725157   -2.7914229945   -0.1217265165
C        0.2141479533    0.0608030131    0.1165515141
C       -0.2613843064    1.1984982419   -0.6021554962
C        2.9465534990   -3.8990910690   -0.3540983411
C       -0.3251580783   -2.3569610362    0.4030609338
C       -2.0785918331   -0.5993993322    0.5181964131
C       -2.4360109087    0.1595031493   -0.7621266185
N        0.5345115910    2.2351592884   -0.9063942229
N       -0.6784770991   -1.0006714491    0.4135093958
O       -1.1619095309   -3.1917576508    0.7413747121
O        2.7439509236   -3.1709536964   -1.4988500937
O       -1.5791744535    1.2913072441   -1.0073352685
Br       4.4527896872   -5.0284228263   -0.0436085173
H        3.3753626567    1.2014517160    0.5571547659
H        1.9469041801   -0.7350754372    1.1671008047
H        1.7973546994   -4.1734986123    1.4937744905
H        2.4457030666    3.0527616759   -0.7477158606
H        1.0865965592   -1.8920004143   -2.1009767141
H       -2.2152786925    0.0476590140    1.3907728000
H       -2.7529884891   -1.4542536003    0.6297285041
H       -2.3710881231   -0.5242548986   -1.6146492647
H       -3.4724003617    0.5041233412   -0.6939621279
27   

C        2.3234808431    1.2304485919    0.2731011675
C        1.5415228771    0.1364714643    0.6206528008
C        1.8347782787   -3.8714461652    0.4977171449
C        1.7807260234    2.2482138564   -0.5100935843
C        1.6851612884   -2.3900706727   -1.1768883568
C        1.0395456683   -2.7889220987   -0.0376400848
C        0.2248533353    0.0837923679    0.1484193375
C       -0.2636641770    1.1860237491   -0.6145210018
C        2.9018891290   -4.0229646369   -0.3413642048
C       -0.2665460633   -2.3354370951    0.5099079826
C       -2.0557943957   -0.6123989900    0.5438510361
C       -2.4143383035    0.0956354663   -0.7655368706
N        0.5151962278    2.2289787074   -0.9399741301
N       -0.6470596348   -0.9872822300    0.4644848709
O       -1.0741326823   -3.1634821626    0.9297254437
O        2.8352098195   -3.1152175716   -1.3670613080
O       -1.5765749898    1.2348803478   -1.0427742211
Br       4.2847398658   -5.3213639922   -0.1349809456
H        3.3501802924    1.3090756933    0.6094526780
H        1.9504930160   -0.6430780743    1.2553279708
H        1.6167676473   -4.4633668411    1.3808553133
H        2.4046459236    3.0941392922   -0.7747239316
H        1.3358344984   -1.6142390086   -1.8493726841
H       -2.2147436109    0.0602889733    1.3929692035
H       -2.7127705211   -1.4778090849    0.6765763723
H       -2.3278458308   -0.6158885387   -1.5931183305
H       -3.4578518471    0.4219659101   -0.7194895595
27   

C        2.3248863773    1.2860465428    0.2623140003
C        1.5567042449    0.1861849552    0.6227847871
C        1.7187388257   -4.0226439157    0.3245395417
C        1.7737424492    2.2806072240   -0.5453166318
C        1.8085125264   -2.3033146436   -1.1065353859
C        1.0554591213   -2.7994676703   -0.0735383783
C        0.2471852087    0.1047678595    0.1369591264
C       -0.2534738648    1.1859150814   -0.6471447442
C        2.8147193395   -4.1567636029   -0.4786985960
C       -0.2168325830   -2.3180848574    0.5247686698
C       -2.0201934610   -0.6121421728    0.5472834553
C       -2.3923907651    0.0675176067   -0.7739292205
N        0.5124114879    2.2341741120   -0.9857252999
N       -0.6085445799   -0.9736462745    0.4641597721
O       -0.9953176843   -3.1315269204    1.0235448904
O        2.8931539600   -3.1067488455   -1.3560070544
O       -1.5654248572    1.2076846105   -1.0809698270
Br       4.0578750243   -5.6026150387   -0.4083819129
H        3.3469276900    1.3876436342    0.6066724255
H        1.9682769649   -0.5783886265    1.2742450887
H        1.3974457380   -4.7103615812    1.1005194370
H        2.3869431258    3.1308876144   -0.8208411862
H        1.5810023658   -1.4070043979   -1.6726257361
H       -2.1806719065    0.0746204018    1.3847883031
H       -2.6666991538   -1.4822331101    0.6998321182
H       -2.3056424036   -0.6599620386   -1.5875291826
H       -3.4382620996    0.3862326758   -0.7277797885
27   

C        2.2772110168    1.3652827566    0.3159030816
C        1.5272172817    0.2537265445    0.6803106011
C        1.5718498658   -4.1351311083    0.1215571118
C        1.7249278648    2.3253665395   -0.5326454300
C        1.9465048221   -2.2315432402   -0.9905979282
C        1.0577642164   -2.8005211823   -0.1117688077
C        0.2380856531    0.1259067532    0.1539205521
C       -0.2702860725    1.1769019731   -0.6645211529
C        2.7133338605   -4.2589939808   -0.6160979129
C       -0.1921616792   -2.3076855345    0.5259105968
C       -2.0133750753   -0.6239672540    0.5537586861
C       -2.3897114248    0.0175306276   -0.7859821322
N        0.4781408576    2.2363562754   -1.0069505554
N       -0.5967487662   -0.9661918434    0.4800039803
O       -0.9485438457   -3.1192320802    1.0621617301
O        2.9636364587   -3.0995328232   -1.3004096858
O       -1.5736581727    1.1576695038   -1.1244778974
Br       3.8064801883   -5.8209190341   -0.6964970846
H        3.2855164350    1.5028078271    0.6872281209
H        1.9349388940   -0.4876090145    1.3606376567
H        1.1278971087   -4.8964601854    0.7556285531
H        2.3241157990    3.1842372495   -0.8123345445
H        1.8658649187   -1.2408125598   -1.4214176516
H       -2.1847913236    0.0812938473    1.3735847621
H       -2.6477814104   -1.4989446590    0.7277597539
H       -2.2946747713   -0.7307702581   -1.5795207023
H       -3.4389105126    0.3264961135   -0.7496846553
27   

C        2.2431354309    1.4644289971    0.3598312523
C        1.5129640598    0.3467837283    0.7467106320
C        1.4453632913   -4.2049261705   -0.0256017816
C        1.6985906601    2.3636364507   -0.5583382109
C        2.1135462997   -2.2182404607   -0.7984640626
C        1.0918125494   -2.7991277640   -0.0861505554
C        0.2560223420    0.1496800013    0.1688508368
C       -0.2532367396    1.1463259137   -0.7137693587
C        2.6255306461   -4.3545378945   -0.6929039724
C       -0.1399917539   -2.2859837211    0.5757855766
C       -1.9806063191   -0.6278543238    0.5584718377
C       -2.3486877736   -0.0607964699   -0.8175223438
N        0.4757735878    2.2122355428   -1.0773023750
N       -0.5580473546   -0.9489686423    0.5161802512
O       -0.8783715200   -3.0868508506    1.1523681256
O        3.0528971309   -3.1464778138   -1.1726366348
O       -1.5414878395    1.0693382797   -1.2096783551
Br       3.5537484998   -6.0046746712   -0.9309335491
H        3.2295109903    1.6536975201    0.7656328401
H        1.9103531279   -0.3493833768    1.4788871054
H        0.8767813754   -4.9931285830    0.4585876309
H        2.2824748474    3.2270589190   -0.8558340698
H        2.1909715043   -1.1772906529   -1.0815769318
H       -2.1725090500    0.1151334096    1.3395680113
H       -2.6031267318   -1.5029582810    0.7706780195
H       -2.2370651294   -0.8487255261   -1.5693930311
H       -3.4016421921    0.2372973250   -0.8082512291
