29   

C        1.8778759692    4.6748284846   -3.2693368957
C        1.9390249897    5.2395844496   -1.9938485435
C        1.2933903060    3.4188911830   -3.4427699918
C        1.4218091310    4.5473492974   -0.8928424842
C        0.7787493144    2.7259105921   -2.3414052771
C        0.8485549361    3.2749993255   -1.0405837177
C        0.2759675730    2.6257793909    0.1917838203
C       -0.6890683375   -1.5252195846    0.0220818489
C        0.2466992031   -0.8775553533   -1.0078032696
C       -1.6659485879   -0.4773335722    0.5710507561
C        0.9777646580    0.3142075413   -0.3810939293
C       -0.9084284142    0.7197392341    1.1535344759
N       -0.0019222566    1.2700659541    0.1449486554
O        0.0452405179    3.2768606208    1.2054054824
H        2.2718181889    5.2152743716   -4.1228419911
H        2.3813564790    6.2196829443   -1.8548449991
H        1.2241217350    2.9872155930   -4.4349387345
H        1.4690522183    5.0100679444    0.0881616247
H        0.2870245800    1.7771203310   -2.5185116342
H       -0.0961090841   -1.9374561671    0.8456876462
H       -1.2439612826   -2.3482109729   -0.4395982989
H       -0.3382661544   -0.5368297356   -1.8682064275
H        0.9743144656   -1.6139281689   -1.3628283785
H       -2.3007573990   -0.9236098350    1.3429135709
H       -2.3144829166   -0.1289130451   -0.2393325660
H        1.6612675436    0.7577653738   -1.1084121841
H        1.6011113535   -0.0438568797    0.4454137641
H       -1.6339629212    1.4728034569    1.4806349362
H       -0.3328084022    0.4069817136    2.0314308757
29   

C        1.9677701848    4.5974943356   -3.2696424385
C        2.0818021765    5.1368583835   -1.9861678282
C        1.2501583232    3.4151223318   -3.4632039146
C        1.4788441244    4.4951837114   -0.8980696840
C        0.6508452565    2.7729245535   -2.3740962456
C        0.7577989427    3.3052174171   -1.0702888146
C        0.1226482582    2.6820841782    0.1431417382
C       -0.6024792448   -1.5055700888    0.0286433822
C        0.2756433480   -0.8114355643   -1.0217970491
C       -1.6013519094   -0.5025272137    0.6204528055
C        0.9796494293    0.4017701986   -0.4056232223
C       -0.8727286492    0.7156913800    1.1964492141
N       -0.0206725747    1.3103150615    0.1654569471
O       -0.1655382163    3.3577332778    1.1250723837
H        2.4280350437    5.0997320888   -4.1132467016
H        2.6327618483    6.0577388345   -1.8312820223
H        1.1473549456    3.0013210201   -4.4600733029
H        1.5689470745    4.9314028705    0.0920266201
H        0.0702329984    1.8750881328   -2.5522374773
H        0.0309180198   -1.9038161896    0.8286554030
H       -1.1396087592   -2.3441480331   -0.4259703258
H       -0.3481077944   -0.4851204391   -1.8602038316
H        1.0197740481   -1.5153819224   -1.4071022606
H       -2.1955314793   -0.9822919564    1.4044549730
H       -2.2868294860   -0.1694371501   -0.1656995981
H        1.6224914709    0.8757528524   -1.1499184734
H        1.6435093768    0.0605436978    0.3960135355
H       -1.6177180376    1.4336607038    1.5569321090
H       -0.2579515804    0.4154154251    2.0516911921
29   

C        2.0125199587    4.5077795905   -3.2499933414
C        2.1639397392    5.0101143901   -1.9548531017
C        1.1905632971    3.4003485003   -3.4730005129
C        1.4897237337    4.4093908162   -0.8852766184
C        0.5206509240    2.7990696438   -2.4018548186
C        0.6528598945    3.3047590175   -1.0913114293
C       -0.0369390100    2.6934606582    0.0982890449
C       -0.5430077734   -1.5010407088    0.0341861151
C        0.2839901563   -0.7657395389   -1.0300135595
C       -1.5478775604   -0.5356483648    0.6770781652
C        0.9749254027    0.4551523892   -0.4149063913
C       -0.8328848734    0.6899020160    1.2556942800
N       -0.0318494650    1.3230502510    0.2065025505
O       -0.4029611277    3.3905790204    1.0378622145
H        2.5281660513    4.9789864932   -4.0793552909
H        2.8001020298    5.8698669416   -1.7768430592
H        1.0652490581    3.0121710090   -4.4775756743
H        1.6093049884    4.8104821442    0.1164127369
H       -0.1285131338    1.9514323358   -2.5912627606
H        0.1251836142   -1.8976646665    0.8061657396
H       -1.0728609412   -2.3446532535   -0.4196793625
H       -0.3734912990   -0.4415541284   -1.8430472552
H        1.0339790964   -1.4428536953   -1.4504856470
H       -2.1054346070   -1.0461591298    1.4684853761
H       -2.2657626494   -0.2051089932   -0.0808407140
H        1.5812328197    0.9575394770   -1.1707585641
H        1.6741014378    0.1193286451    0.3584236458
H       -1.5852303253    1.3777958801    1.6568934568
H       -0.1821200141    0.3899994622    2.0838063598
29   

C        2.0471752255    4.4275142721   -3.2768374418
C        2.2544331299    4.8864126874   -1.9730122444
C        1.1252274712    3.4047109968   -3.5145415520
C        1.5329467946    4.3300876313   -0.9102712197
C        0.4086859554    2.8477569925   -2.4495836452
C        0.5885659209    3.3207272298   -1.1339230950
C       -0.1414099641    2.7241810341    0.0409898917
C       -0.4928139930   -1.4448001065    0.0674313679
C        0.2915341184   -0.6919739055   -1.0168044698
C       -1.4798023620   -0.4940183840    0.7590611569
C        0.9944578233    0.5277007875   -0.4140181933
C       -0.7520247988    0.7289009372    1.3287523813
N        0.0032020765    1.3776856913    0.2551823682
O       -0.5924815101    3.4459727640    0.9224583987
H        2.5993596281    4.8650750713   -4.1011028413
H        2.9711046007    5.6775647346   -1.7832151035
H        0.9609628857    3.0469598510   -4.5247881832
H        1.6953514022    4.6924193234    0.0999634497
H       -0.3096033532    2.0586196807   -2.6431281763
H        0.2049567541   -1.8469286435    0.8097686209
H       -1.0335549866   -2.2860118636   -0.3780065903
H       -0.3960416417   -0.3636045477   -1.8028090687
H        1.0313144460   -1.3585856516   -1.4708664834
H       -2.0060159529   -1.0189167617    1.5623631880
H       -2.2263333138   -0.1582033768    0.0316138081
H        1.5657984141    1.0438261980   -1.1879324952
H        1.7267637165    0.1917498268    0.3279078795
H       -1.4928987390    1.4036215201    1.7710506341
H       -0.0673874770    0.4229151226    2.1265809591
29   

C        2.0734834329    4.3435665887   -3.3192720690
C        2.3273910537    4.7399731995   -2.0030321856
C        1.0668752578    3.4101685466   -3.5816600177
C        1.5668771688    4.2125830212   -0.9528467427
C        0.3115377785    2.8819773351   -2.5288370115
C        0.5360635878    3.2990662160   -1.2029874935
C       -0.2392574638    2.7103111832   -0.0512225979
C       -0.4502601600   -1.4075754550    0.0894621193
C        0.3245379044   -0.6483581502   -0.9973319775
C       -1.4326745797   -0.4622158064    0.7960964874
C        1.0283109081    0.5717175961   -0.3968994585
C       -0.7012196717    0.7588151982    1.3664303748
N        0.0382313131    1.4124189910    0.2849942795
O       -0.8312809851    3.4430153158    0.7314443407
H        2.6558345660    4.7594124133   -4.1339684281
H        3.1105312038    5.4601640204   -1.7942717111
H        0.8680200768    3.0992067135   -4.6011389793
H        1.7644688634    4.5238039566    0.0678510742
H       -0.4687333211    2.1582572873   -2.7379035364
H        0.2543260588   -1.8134145323    0.8232084836
H       -0.9937231808   -2.2467467211   -0.3565650441
H       -0.3698200021   -0.3182368393   -1.7767174874
H        1.0625477411   -1.3107725767   -1.4603681275
H       -1.9507399696   -0.9931392849    1.6006613080
H       -2.1865712891   -0.1232929735    0.0775995142
H        1.5828059161    1.0953673415   -1.1789548120
H        1.7730999816    0.2396875867    0.3342219944
H       -1.4355100857    1.4284037240    1.8266712517
H       -0.0050398974    0.4489202720    2.1525242874
29   

C        1.9543169235    4.4177519352   -3.3027524789
C        2.3222594973    4.6334753781   -1.9712091609
C        0.8404514795    3.6258381365   -3.5965128368
C        1.5784828776    4.0548856240   -0.9359369287
C        0.0998406779    3.0487025257   -2.5589768084
C        0.4674564300    3.2511289130   -1.2180446058
C       -0.3382812286    2.6448241007   -0.0958331504
C       -0.3280948899   -1.4195638540    0.0967036141
C        0.4869653356   -0.6205373543   -0.9317304206
C       -1.3825287580   -0.5172047184    0.7543768109
C        1.1150275546    0.6170308055   -0.2812260315
C       -0.7235788390    0.7179539549    1.3768494049
N        0.0518520592    1.4085301857    0.3454717757
O       -1.2868839016    3.2471951222    0.3897103957
H        2.5265568885    4.8698936829   -4.1051950098
H        3.1799398417    5.2550412279   -1.7396588267
H        0.5455344413    3.4643953695   -4.6273137974
H        1.8602890402    4.2344538830    0.0961124518
H       -0.7712640485    2.4442419795   -2.7881660847
H        0.3436395422   -1.8133638701    0.8668124713
H       -0.8164161337   -2.2690467968   -0.3916292547
H       -0.1714031087   -0.3025707810   -1.7470268319
H        1.2708524854   -1.2533821908   -1.3591368185
H       -1.9270698427   -1.0743304113    1.5229706643
H       -2.1054057323   -0.1932791263   -0.0019982922
H        1.6819193992    1.1707542255   -1.0343464074
H        1.8324242893    0.3075309899    0.4860504894
H       -1.4966151700    1.3604285312    1.8114754935
H       -0.0594587463    0.4178188910    2.1938833027
29   

C        1.9362799433    4.5869015308   -3.3103888149
C        2.3999418977    4.5443374843   -1.9928425519
C        0.7132866529    3.9938521502   -3.6330911066
C        1.6517733947    3.8891113771   -1.0073823749
C       -0.0306665837    3.3437231777   -2.6423759991
C        0.4557238615    3.2344389562   -1.3281257146
C       -0.4009551480    2.6217430880   -0.2491176929
C       -0.2200860894   -1.4011593226    0.1210523194
C        0.6457329137   -0.5999568897   -0.8639257095
C       -1.3550968633   -0.5221530414    0.6648759949
C        1.1789899595    0.6814118419   -0.2095078058
C       -0.7871351307    0.7526124700    1.2930493826
N        0.0389815591    1.4471841895    0.3035105214
O       -1.5616643937    2.9853691853   -0.1026577872
H        2.5138598722    5.0931199410   -4.0758366867
H        3.3348078312    5.0277559986   -1.7323017674
H        0.3343182523    4.0450676521   -4.6476370635
H        2.0066945974    3.8835017104    0.0175297409
H       -0.9941742069    2.9088057294   -2.8877321593
H        0.4013913237   -1.7475808104    0.9535304623
H       -0.6380359848   -2.2816383234   -0.3775626798
H        0.0411073294   -0.3306553616   -1.7366821092
H        1.4810414844   -1.2156544154   -1.2111522023
H       -1.9366633106   -1.0754167062    1.4087752265
H       -2.0287569129   -0.2472793043   -0.1538448674
H        1.7763542432    1.2300322677   -0.9418760691
H        1.8472481538    0.4256649657    0.6192801082
H       -1.6081916850    1.3806830012    1.6550849274
H       -0.1746821945    0.4988040870    2.1644002973
29   

C        1.9433816387    4.6260987986   -3.2995912155
C        2.4363718809    4.4228357869   -2.0085408707
C        0.6718894518    4.1564176142   -3.6351345513
C        1.6678471408    3.7296541807   -1.0656286703
C       -0.0913161434    3.4675679932   -2.6862145361
C        0.4186642098    3.1916231022   -1.4044098548
C       -0.4615813800    2.5462008064   -0.3670669440
C       -0.2077432058   -1.4015587010    0.2302266851
C        0.6557211155   -0.6377063211   -0.7850808713
C       -1.3433925579   -0.5034833714    0.7393519432
C        1.1848070083    0.6717326596   -0.1848828968
C       -0.7753969625    0.7955690541    1.3167604163
N        0.0449420713    1.4570684856    0.3002046945
O       -1.6579611370    2.8080391101   -0.3170421223
H        2.5363297365    5.1617503325   -4.0325640320
H        3.4104367835    4.8119985078   -1.7341602420
H        0.2702219067    4.3328660125   -4.6266452390
H        2.0491783666    3.6053914324   -0.0578320545
H       -1.0905968253    3.1297156502   -2.9421033606
H        0.4144990102   -1.7145037075    1.0752105018
H       -0.6244674307   -2.3011251000   -0.2342539431
H        0.0502634088   -0.4061845292   -1.6680948995
H        1.4930738580   -1.2640053676   -1.1076211761
H       -1.9244317513   -1.0279343074    1.5041515415
H       -2.0176213545   -0.2616242297   -0.0894395845
H        1.7750290105    1.1873439275   -0.9455678183
H        1.8583662270    0.4541120669    0.6504935695
H       -1.5955277572    1.4377745010    1.6559097020
H       -0.1604858139    0.5764609551    2.1957035117
29   

C        1.9101117040    4.6787832144   -3.2459608717
C        2.4311035312    4.3314516899   -1.9978913492
C        0.6080764257    4.3016824035   -3.5787614437
C        1.6581560684    3.5898808287   -1.0962458673
C       -0.1591365134    3.5630711750   -2.6715712397
C        0.3702120281    3.1489363833   -1.4342014986
C       -0.5136245038    2.4340216378   -0.4489236937
C       -0.1821629191   -1.4317440405    0.3830299190
C        0.6604784032   -0.7121923678   -0.6792548068
C       -1.3181155801   -0.5172577336    0.8593458891
C        1.1856299311    0.6299318935   -0.1534108802
C       -0.7531489192    0.8127697624    1.3670374229
N        0.0519997049    1.4359654201    0.3146187933
O       -1.7268749434    2.6109461280   -0.4534387574
H        2.5063114343    5.2527034420   -3.9466173224
H        3.4314352665    4.6467935148   -1.7232675716
H        0.1862290079    4.5868040159   -4.5360182038
H        2.0677961008    3.3611085481   -0.1184144131
H       -1.1788973138    3.2941523792   -2.9289537484
H        0.4529443171   -1.6976000639    1.2344774716
H       -0.5969914405   -2.3560992215   -0.0319158878
H        0.0412627682   -0.5299487079   -1.5642800807
H        1.4992992412   -1.3462446383   -0.9824315005
H       -1.8881785956   -1.0077339780    1.6542581766
H       -2.0022483866   -0.3212020185    0.0264546148
H        1.7521747502    1.1071810084   -0.9555311859
H        1.8793017272    0.4610723427    0.6768228734
H       -1.5748627826    1.4657915551    1.6811317436
H       -0.1293316293    0.6407183693    2.2500975674
29   

C        1.9308484521    4.7391893211   -3.2579654912
C        2.4727591300    4.2648362860   -2.0623141046
C        0.6042740336    4.4470811785   -3.5762159453
C        1.6946936394    3.4849490725   -1.1979881731
C       -0.1681395741    3.6691762575   -2.7073315553
C        0.3730958681    3.1380447618   -1.5192833069
C       -0.5151527882    2.3495080386   -0.5965922448
C       -0.1817876793   -1.4255061460    0.4757766058
C        0.6582576152   -0.7692694618   -0.6271120202
C       -1.3083582831   -0.4779522123    0.9055490878
C        1.1954902743    0.5948086107   -0.1766454982
C       -0.7319743676    0.8736736969    1.3410027100
N        0.0777577817    1.4404006854    0.2603439713
O       -1.7349239122    2.4644351232   -0.6502940137
H        2.5314256968    5.3430050243   -3.9291343104
H        3.4950597665    4.5109965776   -1.7980819779
H        0.1680667336    4.8259131288   -4.4937239821
H        2.1311951530    3.1661649245   -0.2581525253
H       -1.2032751948    3.4612500167   -2.9600882550
H        0.4558334275   -1.6498086131    1.3371850304
H       -0.6049116496   -2.3675507557    0.1120735476
H        0.0345340770   -0.6296876487   -1.5167292940
H        1.4911098901   -1.4238160353   -0.9020393749
H       -1.8805996584   -0.9213161960    1.7260666285
H       -1.9931268206   -0.3220146968    0.0646704036
H        1.7512638900    1.0227554411   -1.0134908938
H        1.8997277286    0.4655279551    0.6518528298
H       -1.5490612803    1.5490441816    1.6179226866
H       -0.1104336843    0.7439824970    2.2327992063
29   

C        1.9229571457    4.8200630287   -3.2432790183
C        2.4930081703    4.2251361568   -2.1174543207
C        0.5752596745    4.6025396215   -3.5270182886
C        1.7207565962    3.4034737907   -1.2870287281
C       -0.1913745043    3.7821543640   -2.6930739971
C        0.3695258337    3.1418234348   -1.5677926079
C       -0.5160935644    2.2740913200   -0.7136222254
C       -0.2066648778   -1.4085212033    0.5994727121
C        0.6424851131   -0.8215208919   -0.5335829588
C       -1.3301810525   -0.4308606516    0.9626468925
C        1.1857083718    0.5625010615   -0.1588168694
C       -0.7494742484    0.9409726407    1.3258352336
N        0.0788736466    1.4458954107    0.2283664508
O       -1.7369032514    2.3403938012   -0.8120837471
H        2.5195428415    5.4562303892   -3.8875817699
H        3.5347647112    4.4091745325   -1.8800000471
H        0.1185511396    5.0693663513   -4.3925299947
H        2.1925247082    2.9997542330   -0.3992498021
H       -1.2400356164    3.6278895467   -2.9279799117
H        0.4237732520   -1.5852708905    1.4770472197
H       -0.6324872307   -2.3678288526    0.2876801841
H        0.0239764193   -0.7291632783   -1.4329536313
H        1.4728413328   -1.4951805880   -0.7668913665
H       -1.9137717238   -0.8229728493    1.8010008489
H       -2.0056060492   -0.3204819651    0.1071044901
H        1.7390894763    0.9380950228   -1.0223276889
H        1.8913787800    0.4761885275    0.6740899709
H       -1.5661759779    1.6357409424    1.5511337549
H       -0.1416288213    0.8592604496    2.2325749248
29   

C        1.8671881105    4.6076864963   -3.5528300356
C        2.1017936195    3.2630557658   -3.2667736050
C        0.8570028465    5.2869322541   -2.8742350292
C        1.3349775302    2.6027751988   -2.2986016715
C        0.0936822030    4.6223693816   -1.9090373514
C        0.3195241318    3.2657482849   -1.5883655174
C       -0.5218261705    2.6362666259   -0.5067391755
C        0.1568429658   -1.4284329413    0.6331954182
C        1.2796608893   -0.5666070095    0.0393512859
C       -1.2020631919   -0.9554071214    0.1004542123
C        1.0240793812    0.9123693207    0.3461893191
C       -1.4051812632    0.5370543065    0.3783514211
N       -0.2880606062    1.3022504040   -0.1759871354
O       -1.4925783611    3.2270381026   -0.0451054386
H        2.4603829838    5.1199105125   -4.3021502159
H        2.8753002329    2.7254074523   -3.8035441359
H        0.6615040352    6.3310108238   -3.0917223953
H        1.5299998286    1.5489695305   -2.1495121085
H       -0.6847009908    5.1732210653   -1.3901002288
H        0.1699496986   -1.3420355333    1.7251308607
H        0.3139688465   -2.4807984852    0.3759779416
H        1.3192900652   -0.7140788901   -1.0448317017
H        2.2431372778   -0.8718724642    0.4591537415
H       -2.0086470789   -1.5306794425    0.5656774486
H       -1.2453010082   -1.1257061852   -0.9801249359
H        1.8357451896    1.5266014168   -0.0510824905
H        1.0320564714    1.0583210384    1.4318880424
H       -2.3535101836    0.8575599667   -0.0670400546
H       -1.4674952044    0.7104893241    1.4582921786
29   

C        1.9010710523    4.5793929081   -3.5073232079
C        2.0234049985    3.2025190742   -3.3176741379
C        0.9551132507    5.2930339504   -2.7721604322
C        1.2120727534    2.5446799675   -2.3850198052
C        0.1464599965    4.6304118183   -1.8429761127
C        0.2739641300    3.2451463553   -1.6088681681
C       -0.6309372608    2.5946446853   -0.5969014588
C        0.2219285990   -1.3893494049    0.6825345680
C        1.2985785002   -0.5131959703    0.0277696284
C       -1.1658731798   -0.9742776315    0.1774134312
C        1.0102367688    0.9673111137    0.2965262983
C       -1.4092161216    0.5177670631    0.4231256091
N       -0.3338071959    1.3029228027   -0.1837076268
O       -1.6299544205    3.1711178127   -0.1802681187
H        2.5287050019    5.0903084850   -4.2289784850
H        2.7419088886    2.6394833498   -3.9026950541
H        0.8431125290    6.3612897032   -2.9201573750
H        1.3091308694    1.4690648730   -2.3031585500
H       -0.5876740841    5.2013645783   -1.2828732226
H        0.2649278749   -1.2689281042    1.7704482134
H        0.4040064789   -2.4438729099    0.4519182715
H        1.3084877072   -0.6937130014   -1.0519957218
H        2.2837723834   -0.7770338410    0.4246526878
H       -1.9399771596   -1.5623140524    0.6803042400
H       -1.2340766789   -1.1747658463   -0.8967533629
H        1.7898036865    1.5869850910   -0.1526764300
H        1.0561267445    1.1499042920    1.3756702839
H       -2.3806444565    0.7939135382   -0.0018406056
H       -1.4462269935    0.7181153703    1.4994448434
29   

C        1.9581327637    4.5728851689   -3.4559541637
C        1.9854244107    3.1805709175   -3.3606647379
C        1.0609669425    5.2991958779   -2.6722640515
C        1.1307516261    2.5196872818   -2.4700307991
C        0.2084558980    4.6326886585   -1.7858001033
C        0.2538436721    3.2319678160   -1.6370129072
C       -0.7185122337    2.5597071338   -0.7068303022
C        0.2562125786   -1.3383307492    0.7065906982
C        1.2975995305   -0.4567172917    0.0038013287
C       -1.1527517610   -0.9578744197    0.2339450195
C        0.9928777213    1.0240923224    0.2510525670
C       -1.4184658379    0.5331642193    0.4629257842
N       -0.3741550529    1.3262138034   -0.1870526446
O       -1.7526897304    3.1199907209   -0.3604844835
H        2.6190992907    5.0869286665   -4.1448920196
H        2.6620869156    2.6098398370   -3.9866848331
H        1.0188702218    6.3796856433   -2.7521598443
H        1.1459003981    1.4360850673   -2.4506610688
H       -0.4950214451    5.2084998896   -1.1923578741
H        0.3280436681   -1.1961099848    1.7903226030
H        0.4508116754   -2.3937294473    0.4906242960
H        1.2791926584   -0.6584233991   -1.0720374616
H        2.2985453402   -0.6958993447    0.3761847954
H       -1.9011970393   -1.5524588909    0.7670305520
H       -1.2465188844   -1.1772967655   -0.8346573589
H        1.7486077242    1.6435556315   -0.2366726995
H        1.0725240446    1.2310246807    1.3237716722
H       -2.4074892416    0.7808766230    0.0616858714
H       -1.4294749297    0.7513238216    1.5361983827
29   

C        1.9687316039    4.5581769478   -3.3884664584
C        1.9376732435    3.1622245701   -3.3879834569
C        1.1020789179    5.2673278783   -2.5552578276
C        1.0575696644    2.4799349764   -2.5394217527
C        0.2237171502    4.5786218832   -1.7118093992
C        0.2217359212    3.1717670371   -1.6503990003
C       -0.7972227827    2.4656673114   -0.7978951973
C        0.2946565511   -1.3308923985    0.7321390758
C        1.2974771778   -0.4396309006   -0.0135035052
C       -1.1362333336   -0.9730473910    0.3097570560
C        0.9825401498    1.0385904203    0.2342821021
C       -1.4168584267    0.5149050792    0.5435850412
N       -0.4063923041    1.3168197263   -0.1485420159
O       -1.8749369999    2.9908724403   -0.5420564132
H        2.6493080357    5.0894970631   -4.0444182268
H        2.5878415965    2.6070340766   -4.0547362051
H        1.1019225333    6.3515270589   -2.5657778430
H        1.0221509266    1.3970501012   -2.5829889620
H       -0.4631250346    5.1381131329   -1.0843602679
H        0.4041265254   -1.1814160233    1.8117070644
H        0.4961842515   -2.3847014866    0.5147123696
H        1.2427459679   -0.6485062825   -1.0867026805
H        2.3146368568   -0.6625352263    0.3234213991
H       -1.8557824224   -1.5773751247    0.8708650042
H       -1.2650147529   -1.1979237794   -0.7541511083
H        1.7115822873    1.6616427010   -0.2877357749
H        1.1026211889    1.2566754410    1.3009640742
H       -2.4249951259    0.7425929669    0.1801185536
H       -1.3913799300    0.7384120421    1.6153208225
29   

C        1.9917115741    4.5415921300   -3.3663850421
C        1.8946191798    3.1510840490   -3.4561288755
C        1.1682222838    5.2352421329   -2.4772773984
C        0.9933970629    2.4570590410   -2.6399486660
C        0.2680105333    4.5346329897   -1.6671299353
C        0.2081405226    3.1291489630   -1.6930707911
C       -0.8442122980    2.4050396348   -0.8950834800
C        0.2855304955   -1.2785046933    0.7661264820
C        1.2662960626   -0.3968622487   -0.0192472800
C       -1.1581802599   -0.9142611996    0.3944489222
C        0.9689379752    1.0843162678    0.2295576166
C       -1.4238217914    0.5761237944    0.6342363333
N       -0.4330125161    1.3659064177   -0.0996549513
O       -1.9577993270    2.8945570954   -0.7463322889
H        2.6889428689    5.0822198754   -3.9967444221
H        2.5097231495    2.6107809682   -4.1669347226
H        1.2174315254    6.3168608338   -2.4202365297
H        0.9044383512    1.3811954821   -2.7440604496
H       -0.3907596186    5.0802727049   -0.9989245256
H        0.4348758474   -1.1252037827    1.8403224338
H        0.4734309305   -2.3342984556    0.5460676230
H        1.1724995215   -0.6108968660   -1.0887201902
H        2.2937220082   -0.6232572169    0.2824600312
H       -1.8598107770   -1.5142822271    0.9821312788
H       -1.3259549385   -1.1413811048   -0.6636402934
H        1.6804984561    1.6968980030   -0.3281377043
H        1.1331059654    1.3125578157    1.2881712726
H       -2.4452096800    0.8056823712    0.3118814245
H       -1.3560213167    0.8039318966    1.7030423328
29   

C        1.9882054662    4.5245237071   -3.3207316140
C        1.8215881184    3.1516478975   -3.5210344952
C        1.2190877671    5.1816926083   -2.3572784632
C        0.9046654996    2.4360098669   -2.7418843754
C        0.3022909542    4.4606444923   -1.5843423358
C        0.1739387177    3.0681984938   -1.7274923633
C       -0.8892720635    2.3177926723   -0.9654632325
C        0.2819112080   -1.2285443471    0.8124101952
C        1.2439525975   -0.3401031643    0.0113449451
C       -1.1716236054   -0.8668765953    0.4754473523
C        0.9459975028    1.1391823171    0.2692568530
C       -1.4361653003    0.6222726875    0.7274483435
N       -0.4638988048    1.4114957359   -0.0312514368
O       -2.0422896804    2.7309279389   -0.9474395649
H        2.6979525326    5.0813821010   -3.9223441944
H        2.3955668102    2.6429981477   -4.2874295349
H        1.3235955799    6.2513391877   -2.2141405271
H        0.7624318295    1.3761600824   -2.9231477603
H       -0.3158254287    4.9771534776   -0.8571026722
H        0.4545335762   -1.0808405329    1.8838356125
H        0.4682820220   -2.2824996563    0.5823489135
H        1.1298833266   -0.5505167236   -1.0569534697
H        2.2782081171   -0.5632432743    0.2914161025
H       -1.8574522398   -1.4719314236    1.0763718829
H       -1.3631041375   -1.0902663047   -0.5795023416
H        1.6412962100    1.7537745267   -0.3075598841
H        1.1329141567    1.3704916989    1.3233685660
H       -2.4671121533    0.8515149369    0.4376404147
H       -1.3392066114    0.8476063468    1.7944140003
29   

C        2.0250582219    4.4631442996   -3.1828113511
C        1.7275336109    3.1497868879   -3.5591090220
C        1.3604152805    5.0430894232   -2.0982503156
C        0.7716494046    2.4161648933   -2.8466074454
C        0.4055144111    4.3065535053   -1.3883247190
C        0.1149901674    2.9794732965   -1.7455068607
C       -0.9363997098    2.1890865916   -1.0064844303
C        0.3640839748   -1.1728375668    0.9043680903
C        1.2982294855   -0.2220183481    0.1410565461
C       -1.0981442008   -0.8958313543    0.5252620630
C        0.9058500669    1.2374003660    0.3929604900
C       -1.4525287338    0.5747191245    0.7714984763
N       -0.5057580655    1.4164723704    0.0385988742
O       -2.1230577496    2.3235564594   -1.2752484399
H        2.7621649280    5.0339244114   -3.7366016439
H        2.2318533370    2.7017592535   -4.4079279364
H        1.5783444091    6.0657185598   -1.8113099710
H        0.5337661966    1.4024544678   -3.1507245176
H       -0.1208343412    4.7625712466   -0.5565539475
H        0.4942578074   -1.0243601563    1.9815961567
H        0.6191613198   -2.2121834113    0.6736397487
H        1.2317107463   -0.4320150872   -0.9315978463
H        2.3341907642   -0.3866052365    0.4531985891
H       -1.7650542922   -1.5404531735    1.1060424395
H       -1.2470382823   -1.1263586444   -0.5350473702
H        1.5801273045    1.8924971110   -0.1650008646
H        1.0422137789    1.4784617918    1.4524716296
H       -2.4879084042    0.7522578312    0.4621695339
H       -1.3925882893    0.8020848619    1.8407721149
29   

C        2.1533953114    4.3810767418   -3.0938236376
C        1.6995813701    3.1766478401   -3.6395161718
C        1.6134342167    4.8464429364   -1.8914443295
C        0.6971699379    2.4466717833   -2.9903364219
C        0.6147420836    4.1116807584   -1.2425739801
C        0.1238952267    2.9175151631   -1.8028996571
C       -0.9153942193    2.0836017344   -1.0971213059
C        0.4565304179   -1.1022933893    0.9712072862
C        1.3740439729   -0.0879101838    0.2713563310
C       -0.9925804082   -0.9194196377    0.4988467691
C        0.8758738333    1.3461408209    0.4923048805
C       -1.4467735123    0.5255829941    0.7199338577
N       -0.5168262311    1.4292583557    0.0394896749
O       -1.9491055582    1.7686377289   -1.6739317831
H        2.9226961429    4.9519734565   -3.6018052455
H        2.1202404266    2.8086997802   -4.5686091112
H        1.9653605067    5.7785813916   -1.4638246715
H        0.3456792041    1.5122689596   -3.4158564498
H        0.2004662299    4.4752959873   -0.3084341617
H        0.5068501162   -0.9514111679    2.0547012496
H        0.7922819446   -2.1219022113    0.7562323619
H        1.3900365278   -0.2990418217   -0.8033038730
H        2.3963222526   -0.1884897474    0.6485518742
H       -1.6538187042   -1.6035580551    1.0395607913
H       -1.0616778022   -1.1563297518   -0.5683119862
H        1.5461410933    2.0336172811   -0.0284288401
H        0.9268539871    1.5979632494    1.5566693563
H       -2.4738292738    0.6467629724    0.3591550397
H       -1.4585199614    0.7538644326    1.7906774178
29   

C        1.8116106470    4.3564518459   -3.2651253699
C        0.5010131429    4.5323397138   -2.8120856800
C        2.6949844372    3.5516732434   -2.5405057087
C        0.0784906654    3.9138730771   -1.6296048420
C        2.2684614326    2.9309227923   -1.3611928027
C        0.9593508783    3.1269401888   -0.8775414477
C        0.4508480617    2.4438189795    0.3644946993
C       -1.2148827111   -1.1871942251    0.0577214973
C       -0.6470836811   -0.4106072703   -1.1389654774
C       -1.3192430314   -0.2667249862    1.2810536183
C        0.7001746685    0.2339593449   -0.7890816060
C        0.0410832825    0.3649269214    1.5892540392
N        0.5268349420    1.0730192780    0.4028019599
O       -0.2486192487    3.0533099059    1.1653328177
H        2.1413999251    4.8432855647   -4.1761765221
H       -0.1893004322    5.1516878485   -3.3737168079
H        3.7119414596    3.4122831207   -2.8897199028
H       -0.9397681385    4.0545003940   -1.2808706895
H        2.9596735889    2.3089413156   -0.8027233847
H       -0.5555421631   -2.0296683438    0.2914934463
H       -2.2022166440   -1.5892587750   -0.1915167910
H       -1.3543664769    0.3752646878   -1.4252929828
H       -0.5265937626   -1.0813536574   -1.9951824450
H       -1.6719197278   -0.8327339217    2.1486752748
H       -2.0453241994    0.5282872629    1.0792323256
H        1.0504568573    0.7842219084   -1.6641689472
H        1.4430055253   -0.5431123459   -0.5810289914
H       -0.0513115194    1.0348919077    2.4510268187
H        0.7590923332   -0.4128288640    1.8689052703
29   

C        1.8360488241    4.4525833335   -3.2194058202
C        0.5531555938    4.7158327908   -2.7318001635
C        2.6480670148    3.5200860088   -2.5689220220
C        0.0856306654    4.0526737700   -1.5912064941
C        2.1773003630    2.8551966557   -1.4312966396
C        0.8909203757    3.1245347830   -0.9182011646
C        0.3294387656    2.4302020805    0.2927165648
C       -1.1558260169   -1.2578064905    0.1761082314
C       -0.6456702783   -0.5066596832   -1.0607827244
C       -1.2608371516   -0.2955169704    1.3660578626
C        0.6863652121    0.1960240660   -0.7709732832
C        0.0859575884    0.3897257056    1.6171238497
N        0.5249391812    1.0711664282    0.3972186980
O       -0.4408030300    3.0137045387    1.0474019670
H        2.2007708770    4.9731318263   -4.0979148480
H       -0.0808011514    5.4383308026   -3.2334513453
H        3.6458538982    3.3173790820   -2.9416137129
H       -0.9106149619    4.2670639498   -1.2169243104
H        2.8219980980    2.1437271607   -0.9267286843
H       -0.4625777674   -2.0687385577    0.4227536222
H       -2.1349396518   -1.7007313436   -0.0332275283
H       -1.3869963139    0.2439535292   -1.3555226908
H       -0.5237740671   -1.2028708000   -1.8962816385
H       -1.5754231061   -0.8387759974    2.2623149980
H       -2.0169596100    0.4678797234    1.1523284341
H        0.9831448445    0.7290066746   -1.6757083303
H        1.4639025703   -0.5465734912   -0.5636463808
H       -0.0084143502    1.0896564525    2.4546515553
H        0.8343934928   -0.3541401615    1.9087469893
29   

C        1.8927799701    4.5429113240   -3.1720595041
C        0.6402835529    4.8766914120   -2.6512595862
C        2.6205834234    3.4926906375   -2.6081418318
C        0.1165237223    4.1620165922   -1.5677071882
C        2.0944884054    2.7766050056   -1.5272275772
C        0.8294446242    3.1020724471   -0.9897505518
C        0.2101696836    2.3915637721    0.1829030555
C       -1.1067901745   -1.3336199529    0.2830613136
C       -0.6524504019   -0.6213855772   -0.9967566375
C       -1.2154186916   -0.3219826996    1.4304127476
C        0.6618664474    0.1358432807   -0.7724073345
C        0.1145180195    0.4157379235    1.6190284067
N        0.5103726477    1.0558023403    0.3624348831
O       -0.6086675307    2.9561624892    0.9005323606
H        2.3012685466    5.1025835059   -4.0061230332
H        0.0737396303    5.6947422300   -3.0818217378
H        3.5989774120    3.2400311819   -3.0011620094
H       -0.8544321454    4.4387100382   -1.1684675418
H        2.6895633359    1.9858248943   -1.0841673068
H       -0.3812442979   -2.1099666216    0.5472928412
H       -2.0754983044   -1.8162758710    0.1176188086
H       -1.4254370390    0.0915128063   -1.3035911363
H       -0.5281633246   -1.3484576455   -1.8052286112
H       -1.4932016146   -0.8330617303    2.3571767519
H       -2.0005045086    0.4066747129    1.2002128867
H        0.9088423497    0.6435088559   -1.7064638984
H        1.4708300554   -0.5713791879   -0.5614729504
H        0.0145572050    1.1518311552    2.4243550899
H        0.8915892715   -0.2903223110    1.9289972735
29   

C        1.9572404268    4.6531219450   -3.1240049554
C        0.7393853550    5.0416888447   -2.5624936334
C        2.5945750723    3.4993113560   -2.6640667574
C        0.1566419748    4.2747674624   -1.5470713490
C        2.0105037896    2.7310908425   -1.6506879780
C        0.7680906892    3.0993706704   -1.0844893482
C        0.0934719097    2.3673443462    0.0458908221
C       -1.0527657363   -1.3821036105    0.3925624239
C       -0.6551688775   -0.7229424862   -0.9328100653
C       -1.1754521176   -0.3131745510    1.4846626290
C        0.6343165691    0.0923243459   -0.7812916558
C        0.1302038658    0.4812861508    1.6043718466
N        0.4849115239    1.0651225231    0.3085310300
O       -0.7629751762    2.9171047501    0.7309604923
H        2.4116660984    5.2523535648   -3.9051375583
H        0.2458127881    5.9433979986   -2.9072784283
H        3.5515402459    3.2075273573   -3.0819532703
H       -0.7845452838    4.6022560147   -1.1162152400
H        2.5566026738    1.8709152570   -1.2818455241
H       -0.2922388557   -2.1152874373    0.6805472897
H       -2.0057271060   -1.9084362922    0.2759189762
H       -1.4614124807   -0.0557843158   -1.2564834719
H       -0.5224584760   -1.4862626316   -1.7057933033
H       -1.4165207326   -0.7815235633    2.4436759088
H       -1.9915820146    0.3726228348    1.2317615713
H        0.8312191416    0.5657780210   -1.7453143894
H        1.4760050007   -0.5730792815   -0.5623132459
H        0.0166682840    1.2586935882    2.3680169801
H        0.9373343914   -0.1779270199    1.9395285459
29   

C        2.0213549870    4.7683612933   -3.0546592366
C        0.8421708561    5.1927571071   -2.4406358445
C        2.5661031692    3.5275199708   -2.7212649829
C        0.2017666280    4.3728056510   -1.5046811491
C        1.9257230767    2.7061179698   -1.7863877261
C        0.7089210699    3.1030459687   -1.1822024210
C       -0.0175743968    2.3397513217   -0.1006412949
C       -0.9962798443   -1.4167706325    0.5042226392
C       -0.6440973368   -0.8234541498   -0.8636042047
C       -1.1507170683   -0.2875054606    1.5289068970
C        0.6126287319    0.0506279698   -0.7824445221
C        0.1234682924    0.5638542452    1.5832593870
N        0.4487764766    1.0798805817    0.2510465536
O       -0.9106842505    2.8734302864    0.5500580449
H        2.5202496290    5.4074851280   -3.7746413158
H        0.4236236569    6.1634390592   -2.6818235643
H        3.4984218917    3.2086089328   -3.1736231933
H       -0.7054902485    4.7363014211   -1.0320630903
H        2.4216735177    1.7844231150   -1.5105771323
H       -0.2020616946   -2.0987563582    0.8251059455
H       -1.9278239193   -1.9877863504    0.4337484444
H       -1.4815664046   -0.2097329803   -1.2127401820
H       -0.4912486019   -1.6254798528   -1.5924477003
H       -1.3637656656   -0.7039140125    2.5180045811
H       -1.9963853930    0.3480431106    1.2437801668
H        0.7658583710    0.4804893320   -1.7748763162
H        1.4861366211   -0.5664629174   -0.5470636062
H       -0.0154378259    1.3834701812    2.2969281694
H        0.9582861868   -0.0405377971    1.9521094341
