39   

C        2.6418317317   -0.4562292305    1.0319766231
C        1.3827128918   -0.9359428512    1.4559289728
C        2.7321176632    0.5501711734    0.0486368684
C       -0.1243245662    2.1194959914   -1.6123081803
C        0.3544119770    0.5715752996   -0.0696779808
C        0.2030781386   -0.4074194539    0.8989604811
C       -0.7134465201    1.2222234137   -0.7545034002
C        1.5569923830    1.0606074948   -0.5018017441
C       -1.3298552714   -2.2499502124    1.7645543328
C       -2.3825657787   -2.8596931459    2.3936589796
C       -2.1415526150    0.8340218684   -0.4655076245
C       -1.2119868786   -0.8221075639    1.2718450525
C       -2.1821123201   -0.6236308583    0.0666428586
C       -2.6021736198   -2.9116194169    3.8950822029
C       -2.8563286755   -1.9002693206   -1.9912666609
C       -3.1008364342   -3.9249214694    1.6017641542
N        1.2814541864    2.0350783826   -1.4682392796
N       -1.8102577586   -1.5542109883   -1.0206595310
O       -4.4223647727   -3.4821641592    1.2892134362
H        3.5464830576   -0.8627088961    1.4691573630
H        1.3291785619   -1.7039895972    2.2181115551
H        3.6950034185    0.9235288627   -0.2756550069
H       -0.6644402042    2.7753812397   -2.2879832066
H       -0.7317301458   -2.9076840443    1.1431802522
H       -2.5417973220    1.5086713278    0.2969405419
H       -2.7582794757    0.9337537140   -1.3627794834
H       -1.5393811933   -0.1627314273    2.0811916432
H       -3.2011748516   -0.8554584500    0.3942334820
H       -3.4401358336   -3.5679047542    4.1496986969
H       -1.7005091372   -3.2804320619    4.3926309495
H       -2.8248574981   -1.9083623605    4.2697673087
H       -3.7275186184   -2.3135593534   -1.4725735584
H       -3.1670992547   -1.0183851137   -2.5592355603
H       -2.4805775632   -2.6529139780   -2.6911478164
H       -2.5576732197   -4.1517784761    0.6784064293
H       -3.1571635242   -4.8478357553    2.1882126700
H        1.9788029504    2.5805073691   -1.9654408232
H       -0.9278583137   -1.2648438957   -1.4437965399
H       -4.8788275322   -4.1356685663    0.7311549444
39   

C        2.6483997853   -0.5602104125    1.0497539423
C        1.3860082145   -1.0620540130    1.4374504548
C        2.7472755557    0.4814631109    0.1045001827
C       -0.0940262849    2.0887979996   -1.5462574515
C        0.3720912557    0.4923789651   -0.0499730512
C        0.2119524095   -0.5198225173    0.8823753737
C       -0.6894511007    1.1575905827   -0.7300781898
C        1.5775729258    1.0040258461   -0.4458906444
C       -1.3188092519   -2.3820165353    1.6981444026
C       -2.2990758035   -2.9050351691    2.4824359463
C       -2.1180175663    0.7460764689   -0.4800337089
C       -1.2067046550   -0.9519097501    1.2189354489
C       -2.1538863109   -0.7313280334   -0.0008885467
C       -2.4223235399   -2.6646791710    3.9762530122
C       -2.7183230272   -1.8614872361   -2.1804608680
C       -2.9534581046   -4.1671316206    1.9760591647
N        1.3098151275    2.0100076891   -1.3818624526
N       -1.7468021168   -1.6283826860   -1.1034665447
O       -4.3554483432   -4.1391128296    2.2548951151
H        3.5490508957   -0.9768344915    1.4856445294
H        1.3258566520   -1.8574143026    2.1706133821
H        3.7125107675    0.8719445857   -0.1914918293
H       -0.6284089907    2.7632611326   -2.2081165839
H       -0.8471444198   -3.0679730621    1.0023191215
H       -2.5368265613    1.3889011092    0.2998369521
H       -2.7215531326    0.8764721382   -1.3820518120
H       -1.5554233330   -0.3046497138    2.0294322837
H       -3.1771993467   -0.9835649453    0.2967814271
H       -3.3517990785   -2.1289414072    4.1899045388
H       -2.4305418603   -3.6135992261    4.5208083142
H       -1.5813908649   -2.0643622005    4.3359888540
H       -3.6667616655   -2.2159118644   -1.7641333879
H       -2.8994232944   -0.9428623527   -2.7464972391
H       -2.3350872545   -2.6218077711   -2.8679390877
H       -2.7959134814   -4.2744484820    0.8977889129
H       -2.5031777934   -5.0329866404    2.4723081075
H        2.0105669346    2.5780733301   -1.8480573016
H       -0.8210568802   -1.3623096807   -1.4417996609
H       -4.7910343540   -4.9411895272    1.9167561910
39   

C        2.5940375080   -0.6402022767    1.0611535473
C        1.3233021774   -1.1538313149    1.4038678688
C        2.7131891411    0.4417460664    0.1645916378
C       -0.0928600782    2.1291879174   -1.4666189470
C        0.3414808074    0.4682496041   -0.0320749062
C        0.1613685870   -0.5828679116    0.8525577838
C       -0.7055102986    1.1653346699   -0.7028576656
C        1.5553237135    0.9923384162   -0.3834388101
C       -1.3907018844   -2.4670903901    1.5668884032
C       -2.2811056935   -2.9539356378    2.4610008752
C       -2.1392216348    0.7466961853   -0.4990274935
C       -1.2645337578   -1.0226559948    1.1442841531
C       -2.1860549353   -0.7500290097   -0.0847867385
C       -2.3619495455   -2.5104929690    3.9082778400
C       -2.7098891705   -1.7813633540   -2.3229238876
C       -2.8873812427   -4.3013736044    2.1528485276
N        1.3074350093    2.0389898154   -1.2795586437
N       -1.7598586119   -1.5995692559   -1.2171273838
O       -4.2773713100   -4.2986944348    2.4877438138
H        3.4854489274   -1.0791749492    1.4940411206
H        1.2470337726   -1.9808130293    2.0995885663
H        3.6847624581    0.8411166410   -0.0967583950
H       -0.6132424633    2.8329385524   -2.1088706893
H       -1.0149734020   -3.1563050420    0.8179948664
H       -2.5724550316    1.3562810745    0.2994531197
H       -2.7247835754    0.9172621609   -1.4061703972
H       -1.6284737147   -0.4010333710    1.9679742666
H       -3.2153698297   -1.0120876631    0.1820886433
H       -3.2956015121   -1.9660731990    4.0771662007
H       -2.3338737746   -3.3748438908    4.5785272163
H       -1.5226000651   -1.8535424333    4.1552507374
H       -3.6679941626   -2.1493153796   -1.9419569019
H       -2.8761355754   -0.8382690950   -2.8520565953
H       -2.3153515143   -2.5128314598   -3.0348648516
H       -2.7670826753   -4.5449066508    1.0922399579
H       -2.3753252310   -5.0719988837    2.7380971672
H        2.0180797151    2.6242963712   -1.7079034113
H       -0.8262540459   -1.3235234255   -1.5245486848
H       -4.6866451494   -5.1561045598    2.2760726111
39   

C        2.5426216878   -0.7219962202    1.1327404713
C        1.2573748312   -1.2350645406    1.4174951592
C        2.6992902686    0.3888452141    0.2782265710
C       -0.0390317866    2.1555711671   -1.3837793435
C        0.3354820550    0.4442355931    0.0078996172
C        0.1183168043   -0.6346387446    0.8499984448
C       -0.6835008120    1.1720526864   -0.6731926618
C        1.5641320149    0.9687209509   -0.2867149923
C       -1.4668023473   -2.5245908052    1.4537128684
C       -2.2368302741   -3.0125051598    2.4468744369
C       -2.1257059478    0.7575435198   -0.5318938840
C       -1.3198745328   -1.0719563784    1.0790533934
C       -2.1951176563   -0.7527835746   -0.1728839339
C       -2.3073527933   -2.4247833821    3.8392619565
C       -2.6418755244   -1.6878642764   -2.4696823081
C       -2.7584179444   -4.4204191326    2.2880357887
N        1.3536289516    2.0470468517   -1.1544596000
N       -1.7362370085   -1.5655908973   -1.3191792298
O       -4.1190254330   -4.4891143661    2.7227080648
H        3.4161940900   -1.1842471157    1.5775701647
H        1.1521524035   -2.0851848609    2.0808104484
H        3.6819934036    0.7874528907    0.0610563399
H       -0.5327717860    2.8843734532   -2.0191030282
H       -1.1757732421   -3.2106052970    0.6653190531
H       -2.5812691441    1.3417853187    0.2731103603
H       -2.6799290417    0.9649439564   -1.4509373195
H       -1.7095272713   -0.4671126051    1.9030620760
H       -3.2347105721   -1.0160260058    0.0491260434
H       -3.2550694855   -1.8943726621    3.9701074487
H       -2.2416164014   -3.2146151046    4.5936154280
H       -1.4840711111   -1.7235391168    4.0048821947
H       -3.6235612366   -2.0453654369   -2.1426170427
H       -2.7639809086   -0.7239600463   -2.9727357024
H       -2.2334714241   -2.4041368859   -3.1891891675
H       -2.6936344376   -4.7408370059    1.2432303857
H       -2.1500460699   -5.1026116083    2.8904438203
H        2.0823624040    2.6397402958   -1.5401338742
H       -0.7865531095   -1.2940136891   -1.5776205344
H       -4.4765757986   -5.3868217790    2.6053087516
39   

C        2.4342899590   -0.8426017502    1.2746358152
C        1.1258851700   -1.3362707215    1.4759883228
C        2.6584368089    0.2867007318    0.4603637845
C        0.0495513370    2.1497375880   -1.3013528169
C        0.3142864818    0.3979209063    0.0651854459
C        0.0306823277   -0.6977390532    0.8651226427
C       -0.6513382940    1.1620057334   -0.6527850809
C        1.5669772643    0.9043923672   -0.1486972779
C       -1.6136030534   -2.5713239554    1.3361124561
C       -2.1711798346   -3.0643541869    2.4555106373
C       -2.1058210378    0.7709228262   -0.6039726999
C       -1.4258733744   -1.1143260144    1.0000419385
C       -2.2200575676   -0.7475708183   -0.2931336364
C       -2.1338312311   -2.3903931638    3.8073593357
C       -2.5489233117   -1.6008438261   -2.6412665444
C       -2.6316847030   -4.5028666829    2.4273415544
N        1.4250061738    2.0079628611   -0.9984762895
N       -1.7121423151   -1.5366277724   -1.4350686043
O       -3.8923356777   -4.6308077741    3.0909024216
H        3.2734837255   -1.3349850933    1.7520870447
H        0.9690804737   -2.2023542758    2.1077160324
H        3.6590401482    0.6698845747    0.3063800395
H       -0.3944798724    2.9030180969   -1.9447662060
H       -1.4952779014   -3.2501869666    0.4983749867
H       -2.5956439585    1.3408794615    0.1911320165
H       -2.6042514542    1.0145842207   -1.5457582125
H       -1.8559576028   -0.5175323542    1.8094833224
H       -3.2751068827   -0.9968732753   -0.1382257619
H       -3.0812729835   -1.8756267484    3.9918570430
H       -1.9773351280   -3.1284900937    4.5998546190
H       -1.3187393533   -1.6623215387    3.8563324813
H       -3.5580974154   -1.9389238185   -2.3847567419
H       -2.6141609329   -0.6202325112   -3.1221362905
H       -2.1168964018   -2.3081612297   -3.3557849761
H       -2.7289755810   -4.8572532902    1.3961894853
H       -1.8898229772   -5.1297707548    2.9322129658
H        2.1850392381    2.5946956904   -1.3288949003
H       -0.7421612334   -1.2820593795   -1.6274371597
H       -4.2082164485   -5.5511712910    3.0641011144
39   

C        2.2261016497   -0.8838082136    1.3125485864
C        0.9044645375   -1.3609134399    1.4583031721
C        2.4955581789    0.2559997013    0.5278080150
C       -0.0192357777    2.1837291595   -1.2985043145
C        0.1685101474    0.4092694406    0.0516141397
C       -0.1606797719   -0.6941247104    0.8232539448
C       -0.7579299474    1.1970284851   -0.6915559571
C        1.4356489969    0.8997327825   -0.1089319177
C       -1.8506844037   -2.5446924085    1.2229462401
C       -2.1322027259   -3.0578817331    2.4311177208
C       -2.2177217357    0.8244573428   -0.7064556452
C       -1.6292546273   -1.0894833980    0.8992217976
C       -2.3644692877   -0.6966837639   -0.4211789211
C       -1.9683770886   -2.3294844042    3.7428514317
C       -2.5935040849   -1.4989432019   -2.7999191459
C       -2.4969907554   -4.5229601537    2.4998700223
N        1.3415344075    2.0178694931   -0.9460073876
N       -1.8214905514   -1.4815180390   -1.5496791796
O       -3.5940630462   -4.7230182353    3.3960724863
H        3.0403908873   -1.3979859764    1.8097644348
H        0.7163143841   -2.2375477074    2.0661325421
H        3.5065750393    0.6262604003    0.4160443623
H       -0.4276524964    2.9517695840   -1.9479944626
H       -1.9215755288   -3.2095625156    0.3688317136
H       -2.7316447947    1.3905752326    0.0760807022
H       -2.6747923477    1.0877377536   -1.6637780555
H       -2.0833080080   -0.4922819493    1.6953394794
H       -3.4284696046   -0.9319535133   -0.3128246271
H       -2.9224860866   -1.8862115558    4.0426843957
H       -1.6440536190   -3.0212381897    4.5261961958
H       -1.2192577329   -1.5366874868    3.6632737164
H       -3.6275657488   -1.7997127595   -2.6030745874
H       -2.5939269370   -0.5110911465   -3.2703310297
H       -2.1508186603   -2.2143294785   -3.4997253235
H       -2.7704904901   -4.8992945465    1.5090107565
H       -1.6315313308   -5.0939095018    2.8507352744
H        2.1219419836    2.5975992631   -1.2391997611
H       -0.8353583794   -1.2540800019   -1.6863738776
H       -3.8473478924   -5.6622116577    3.4330217540
39   

C        2.1666410600   -0.9302705989    1.3308564804
C        0.8337921361   -1.3771743475    1.4683104152
C        2.4684618281    0.1936979923    0.5356652269
C        0.0153107100    2.1516352542   -1.3406439643
C        0.1498109236    0.3906995049    0.0333532489
C       -0.2114440809   -0.6958611870    0.8146135325
C       -0.7511335141    1.1887575422   -0.7297061498
C        1.4290254637    0.8517894421   -0.1196109004
C       -1.9442422094   -2.5047657551    1.2187223705
C       -2.0847103866   -3.0252741850    2.4480079235
C       -2.2182597688    0.8472317904   -0.7565229826
C       -1.6899643422   -1.0594451153    0.8787740914
C       -2.4011157224   -0.6669759320   -0.4549010636
C       -2.0129041052   -2.2471997726    3.7383104210
C       -2.6161397612   -1.4891614995   -2.8282788773
C       -2.3034901714   -4.5178045997    2.5533872881
N        1.3682811517    1.9610659033   -0.9712096935
N       -1.8621100327   -1.4774174167   -1.5670280681
O       -3.3464574419   -4.8093385675    3.4887529820
H        2.9644519359   -1.4558835435    1.8426516632
H        0.6235757247   -2.2424995357    2.0846762310
H        3.4883380436    0.5407320978    0.4300538705
H       -0.3691773571    2.9199593542   -2.0042161279
H       -2.0550636558   -3.1755144869    0.3735180865
H       -2.7283624363    1.4337694324    0.0133614430
H       -2.6589168908    1.1088086708   -1.7219647104
H       -2.1410475375   -0.4433011210    1.6618731222
H       -3.4711676628   -0.8778567075   -0.3565650449
H       -3.0055087975   -1.8685459155    3.9992178856
H       -1.6588194848   -2.8869248876    4.5524256034
H       -1.3223189966   -1.4036326617    3.6525284442
H       -3.6608340964   -1.7591226393   -2.6432963455
H       -2.5825041942   -0.5075092283   -3.3103447269
H       -2.1831207449   -2.2248380921   -3.5129278309
H       -2.5715075836   -4.9381804758    1.5788955728
H       -1.3751678453   -4.9955817470    2.8818679218
H        2.1643426933    2.5198424562   -1.2630143374
H       -0.8687243259   -1.2761731440   -1.6918782651
H       -3.5073552944   -5.7677630876    3.5446216217
39   

C        2.1522004024   -1.0043605881    1.3605116172
C        0.8113324042   -1.4225519931    1.5093053294
C        2.4724984795    0.1051356847    0.5524707379
C        0.0490128883    2.0981656863   -1.3252986177
C        0.1554172040    0.3448550736    0.0607246744
C       -0.2233425178   -0.7280777563    0.8523600038
C       -0.7335974858    1.1561772174   -0.7023047484
C        1.4429333550    0.7785213962   -0.1028736622
C       -1.9801523035   -2.5057105160    1.2663147242
C       -2.0703956355   -3.0376041043    2.4969322104
C       -2.2079865023    0.8462404660   -0.7153836169
C       -1.7077695713   -1.0651672915    0.9235937640
C       -2.4201198109   -0.6626552500   -0.4065538370
C       -2.2329525656   -2.2585620071    3.7783441956
C       -2.6763230097   -1.4904244351   -2.7731543223
C       -2.1004602851   -4.5467288689    2.6013690290
N        1.4000814011    1.8819044195   -0.9630711327
N       -1.9065793748   -1.4857622052   -1.5213176834
O       -3.1687097109   -4.9749215577    3.4522473835
H        2.9418508079   -1.5409296876    1.8736099804
H        0.5874260285   -2.2761547041    2.1369512435
H        3.4986820821    0.4300700287    0.4380048195
H       -0.3235293898    2.8699549604   -1.9916419666
H       -2.0361835847   -3.1827388934    0.4207707491
H       -2.6987897078    1.4463358743    0.0565978105
H       -2.6510795276    1.1137526470   -1.6780786957
H       -2.1435642163   -0.4403592212    1.7080460083
H       -3.4934485019   -0.8515257366   -0.2995828814
H       -3.2791984839   -1.9655932718    3.9055529890
H       -1.9323973948   -2.8634883355    4.6392430594
H       -1.6089659318   -1.3605033255    3.7697796047
H       -3.7226147302   -1.7438384724   -2.5741932539
H       -2.6341125162   -0.5109973591   -3.2590656912
H       -2.2631882403   -2.2349001018   -3.4605420356
H       -2.2310766645   -5.0000609162    1.6136563449
H       -1.1468947737   -4.8984463398    3.0073668694
H        2.2058380458    2.4216328014   -1.2639989797
H       -0.9117792579   -1.3005881936   -1.6587765992
H       -3.2073857495   -5.9462728361    3.5026224038
39   

C        2.1967030465   -1.0598513359    1.2909430750
C        0.8540683424   -1.4548890276    1.4808091445
C        2.5111562708    0.0416197202    0.4696745281
C        0.0652658490    2.0725909066   -1.3375896299
C        0.1846462220    0.3190466937    0.0463143595
C       -0.1875588257   -0.7459347825    0.8509367917
C       -0.7139657123    1.1447692664   -0.6893844969
C        1.4737450933    0.7307944018   -0.1565909357
C       -1.9425931986   -2.5022902916    1.3089161979
C       -2.0738799062   -3.0293370314    2.5407563847
C       -2.1935996161    0.8606634778   -0.6537151909
C       -1.6734229624   -1.0608965791    0.9666018944
C       -2.4223081147   -0.6446811577   -0.3384668627
C       -2.6049840736   -2.2953336437    3.7477466576
C       -2.7748153485   -1.4695742276   -2.6928326980
C       -1.8638706500   -4.5216854984    2.6825835112
N        1.4231356220    1.8334762736   -1.0171346388
N       -1.9586997073   -1.4733510820   -1.4707173536
O       -2.9739755711   -5.1322652904    3.3489847244
H        2.9921708383   -1.6076546555    1.7827802020
H        0.6335158875   -2.3013747857    2.1193400746
H        3.5387812433    0.3490090720    0.3239018813
H       -0.3143189153    2.8506483330   -1.9925483217
H       -1.8354757501   -3.1903015382    0.4772447898
H       -2.6479327376    1.4687204279    0.1341905314
H       -2.6632841741    1.1368043232   -1.6012513695
H       -2.0715802283   -0.4343484763    1.7687623688
H       -3.4944633233   -0.8163265628   -0.1965754840
H       -3.6809212635   -2.1303769168    3.6393830696
H       -2.4300732746   -2.8702076219    4.6622291270
H       -2.1053198899   -1.3298871913    3.8641898435
H       -3.8151153441   -1.7139753206   -2.4549689480
H       -2.7423128764   -0.4898545353   -3.1789201920
H       -2.3944219686   -2.2167058714   -3.3960357512
H       -1.7414299159   -4.9895310637    1.7006076388
H       -0.9487027004   -4.7036130829    3.2544735095
H        2.2283218818    2.3592404546   -1.3432977789
H       -0.9680324606   -1.2981680480   -1.6453954968
H       -2.8543920526   -6.0958822363    3.4171239065
39   

C        2.1865283243   -1.1118327537    1.2496510902
C        0.8389845304   -1.4769477016    1.4620226737
C        2.5113452186   -0.0192238073    0.4210101435
C        0.0810548678    2.0639905991   -1.3468311414
C        0.1843656503    0.3085701484    0.0355780956
C       -0.1978148395   -0.7470773847    0.8474542970
C       -0.7079640149    1.1545241758   -0.6843618230
C        1.4788710289    0.6913935375   -0.1892307371
C       -1.9770027743   -2.4691555298    1.3323553364
C       -2.0797837011   -2.9874852109    2.5749779914
C       -2.1931481745    0.9054809641   -0.6203806474
C       -1.6884928809   -1.0296828515    0.9891838350
C       -2.4524188355   -0.5939770612   -0.3002259984
C       -2.8481250033   -2.3492850222    3.7085449080
C       -2.8665272123   -1.4103258861   -2.6475591522
C       -1.6614982824   -4.4309187760    2.7595510978
N        1.4385519567    1.7941509043   -1.0499562760
N       -2.0288010635   -1.4330295416   -1.4403972010
O       -2.7172105219   -5.2005558444    3.3452619809
H        2.9777068301   -1.6756567664    1.7302306467
H        0.6121228482   -2.3164797240    2.1070850671
H        3.5429393067    0.2654888650    0.2581683971
H       -0.2918127389    2.8507484778   -1.9951793675
H       -1.7949585140   -3.1591503396    0.5153993992
H       -2.6177074340    1.5242818953    0.1757001406
H       -2.6737977984    1.1929017796   -1.5590215639
H       -2.0544502802   -0.4008331509    1.8049168662
H       -3.5254208258   -0.7406592555   -0.1383618466
H       -3.9195482636   -2.3683825144    3.4884176703
H       -2.6743029440   -2.8823566620    4.6482658073
H       -2.5336034378   -1.3121720110    3.8518115771
H       -3.9077742034   -1.6304003826   -2.3908982758
H       -2.8198717106   -0.4316591158   -3.1346282981
H       -2.5163085301   -2.1661357648   -3.3571417812
H       -1.3916915305   -4.8791455391    1.7980422799
H       -0.7779820334   -4.4705092075    3.4040161860
H        2.2498202090    2.3013854699   -1.3901291868
H       -1.0378063933   -1.2806950670   -1.6333918636
H       -2.4617980888   -6.1356036730    3.4341494198
39   

C        2.1429677209   -1.1426895461    1.2569957332
C        0.7862294147   -1.4679053429    1.4740366601
C        2.4966655507   -0.0610336704    0.4265800794
C        0.1231016627    2.0936421740   -1.3311037995
C        0.1783000101    0.3346265852    0.0496085031
C       -0.2323906642   -0.7096031324    0.8625912120
C       -0.6906077202    1.2082488807   -0.6657106708
C        1.4830111716    0.6789400375   -0.1798923317
C       -2.0664728464   -2.3818022609    1.3527607826
C       -2.1058579612   -2.9123392617    2.5994998578
C       -2.1824523811    1.0059186710   -0.5942524486
C       -1.7315239564   -0.9484700837    1.0096575132
C       -2.4874067941   -0.4849998956   -0.2748856584
C       -3.0202441777   -2.4268648417    3.7029087284
C       -2.9344004978   -1.2837290171   -2.6227920674
C       -1.5083421529   -4.2929857259    2.7783270554
N        1.4729450674    1.7825162823   -1.0401211484
N       -2.0943463592   -1.3347153567   -1.4181435384
O       -2.4564774952   -5.1973775095    3.3562774177
H        2.9188294672   -1.7288272629    1.7359082098
H        0.5409906139   -2.2990650030    2.1219185722
H        3.5356049839    0.1933392406    0.2602439935
H       -0.2281133198    2.8921568316   -1.9771171689
H       -1.8838729763   -3.0665752703    0.5314947546
H       -2.5831869281    1.6366348974    0.2047919724
H       -2.6583851058    1.3097412893   -1.5301305775
H       -2.0739631598   -0.3163098631    1.8338125401
H       -3.5637624495   -0.5984764507   -0.1088318626
H       -4.0529454544   -2.7140600217    3.4832764370
H       -2.7313344909   -2.8588390318    4.6660811853
H       -2.9688233381   -1.3380866512    3.7902506907
H       -3.9814235760   -1.4705943519   -2.3633928989
H       -2.8575799900   -0.3065515435   -3.1090240105
H       -2.6105656368   -2.0496077900   -3.3341317499
H       -1.1822103889   -4.6967025309    1.8145095472
H       -0.6277869567   -4.2241865493    3.4242021850
H        2.2980178806    2.2650634652   -1.3830258045
H       -1.0996606158   -1.2134581163   -1.6142029961
H       -2.0859591622   -6.0943556200    3.4309287037
39   

C        2.1137917613   -1.1422481311    1.2666628997
C        0.7523997629   -1.4348608645    1.4983169591
C        2.4839386083   -0.0969783455    0.3989025966
C        0.1450131957    2.0456731360   -1.4162440904
C        0.1707609819    0.3281027883    0.0171194285
C       -0.2569184261   -0.6829228317    0.8635798535
C       -0.6831727709    1.1980371005   -0.7200925432
C        1.4811662694    0.6404832947   -0.2275484657
C       -2.1359685346   -2.3103071038    1.3994249545
C       -2.1105886607   -2.8590092058    2.6482842726
C       -2.1781785835    1.0312710544   -0.6333881960
C       -1.7615495494   -0.8922936853    1.0204140888
C       -2.5127201360   -0.4434882433   -0.2731336932
C       -3.1377547199   -2.5669604730    3.7235880448
C       -2.9873121785   -1.2914402564   -2.5991165057
C       -1.3421176634   -4.1553834980    2.8070572227
N        1.4895986735    1.7161579429   -1.1220046749
N       -2.1428853093   -1.3289297824   -1.3970356590
O       -2.1995070082   -5.2142894607    3.2485265586
H        2.8803997737   -1.7251999179    1.7640834373
H        0.5001844197   -2.2358671321    2.1781128223
H        3.5267216516    0.1326500316    0.2210407352
H       -0.1929699056    2.8316342965   -2.0842723559
H       -1.9895019876   -3.0031533104    0.5775929246
H       -2.5592350395    1.6913959524    0.1513634052
H       -2.6537152520    1.3208068330   -1.5739874797
H       -2.0908368733   -0.2382957063    1.8334433933
H       -3.5905337854   -0.5297081687   -0.1003618131
H       -4.1162218793   -2.9493118366    3.4175638406
H       -2.8565020626   -3.0336433061    4.6727716605
H       -3.2159294299   -1.4875335194    3.8823151515
H       -4.0370408646   -1.4475044287   -2.3304906030
H       -2.8906454227   -0.3297782616   -3.1119992717
H       -2.6841489990   -2.0834375017   -3.2907121447
H       -0.8874224235   -4.4471540053    1.8548288380
H       -0.5343341017   -4.0118250707    3.5309657899
H        2.3227847641    2.1707802801   -1.4829923579
H       -1.1467252914   -1.2342848875   -1.6001532614
H       -1.7142238653   -6.0554550402    3.3145081251
39   

C        2.0756688603   -1.0857541621    1.3672450392
C        0.7053407408   -1.3304651734    1.5997499495
C        2.4805304449   -0.1043459486    0.4437175052
C        0.2169716293    2.0034586172   -1.4994812019
C        0.1814222755    0.3544122370    0.0134107794
C       -0.2816614457   -0.6022176396    0.9052175618
C       -0.6402626182    1.2145207417   -0.7703046736
C        1.5022643390    0.6212203212   -0.2321247794
C       -2.2372253735   -2.1663169520    1.4674531238
C       -2.1432021567   -2.7817115859    2.6928457439
C       -2.1392600181    1.1019672380   -0.6824218433
C       -1.7951592211   -0.7739116733    1.0488081655
C       -2.5198479739   -0.3464715177   -0.2695572564
C       -3.2081754624   -2.7165210859    3.7733487859
C       -3.0110241098   -1.2625167975   -2.5670212008
C       -1.2591611410   -4.0121355326    2.7487656923
N        1.5489962815    1.6495700865   -1.1790979088
N       -2.1700339022   -1.2786230400   -1.3619660831
O       -2.0289134113   -5.1918317158    3.0094792164
H        2.8221118536   -1.6548468307    1.9094243598
H        0.4332283565   -2.0735420728    2.3323573138
H        3.5304451645    0.0893944970    0.2651544791
H       -0.0931745636    2.7678834809   -2.2049023748
H       -2.2529290358   -2.8571833935    0.6312360297
H       -2.5001123139    1.8025757103    0.0763374145
H       -2.6028115901    1.3716125445   -1.6348380031
H       -2.1193225108   -0.0848654729    1.8344566628
H       -3.6012200830   -0.3933634974   -0.1039020975
H       -4.1582527824   -3.0936625793    3.3831048203
H       -2.9246642566   -3.3095544653    4.6484693013
H       -3.3469594714   -1.6798501626    4.0934741677
H       -4.0649176460   -1.3817594564   -2.2957639313
H       -2.8887699711   -0.3227374595   -3.1138420943
H       -2.7273824954   -2.0865148977   -3.2288672722
H       -0.7348374712   -4.1427336821    1.7963471587
H       -0.5053216612   -3.8849254075    3.5315317617
H        2.3978574301    2.0624389351   -1.5534770211
H       -1.1709661103   -1.2186502150   -1.5641628020
H       -1.4660073011   -5.9859091977    3.0104828359
