16   
Generated by ForceBalance from scan.xyz: Frame 1 of 24
C        2.4634203359   -1.3110243544   -0.5534100575
C        4.7671393819   -0.3741611067   -1.2348963003
C        4.8743484724   -0.8116758501    0.1952957299
C        3.5425979641   -0.2951955315   -0.3357588271
C        0.0886256802   -1.8243531489   -0.1239873617
N        1.1888855191   -0.8791147226   -0.2737478871
O        2.7030842499   -2.4535243027   -0.9488953780
H        5.2244318352    0.5651163205   -1.5306733973
H        4.7435062471   -1.1513091472   -1.9916039478
H        4.9240746054   -1.8783047761    0.3875618263
H        5.4036353031   -0.1763222580    0.8990732312
H        3.2328601513    0.6949133261   -0.0105562133
H        0.0575526661   -2.2615094966    0.8823305630
H       -0.8596413477   -1.3190317920   -0.3262128656
H        0.2259186579   -2.6304376884   -0.8450733906
H        1.1053416208    0.0083831691    0.2047344590
16   
Generated by ForceBalance from scan.xyz: Frame 2 of 24
C        2.4362948128   -1.2703049198   -0.7039431230
C        4.8023402359   -0.3586590570   -1.1979070344
C        4.7962065559   -0.8470518512    0.2192528851
C        3.5166786471   -0.2815834797   -0.3891461558
C        0.1274208844   -1.8283013385   -0.0617553422
N        1.1487486449   -0.8493047693   -0.4326843522
O        2.6834951546   -2.4001002226   -1.1260180426
H        5.3002530777    0.5786533403   -1.4264855211
H        4.8173295554   -1.1093989108   -1.9811017370
H        4.8098649635   -1.9201704504    0.3779953222
H        5.2829890379   -0.2471500964    0.9823479212
H        3.2054293249    0.7033018875   -0.0500849944
H        0.2534481229   -2.1778551591    0.9712202232
H       -0.8642177445   -1.3820861209   -0.1736322078
H        0.2075401184   -2.6858239938   -0.7300235321
H        1.0929802260    0.0319713344    0.0641346384
16   
Generated by ForceBalance from scan.xyz: Frame 3 of 24
C        2.4173584361   -1.2383426925   -0.8435231137
C        4.8258255504   -0.3433345515   -1.1506977255
C        4.7184788632   -0.8945495563    0.2384159930
C        3.4897860784   -0.2785032621   -0.4276680241
C        0.1926524432   -1.8261471912    0.0125406747
N        1.1123498505   -0.8433442889   -0.5721423359
O        2.6790889940   -2.3472688472   -1.3053559745
H        5.3531302851    0.5934437316   -1.3024454533
H        4.8808761829   -1.0586619334   -1.9647225552
H        4.7052151475   -1.9735844814    0.3491336646
H        5.1595143905   -0.3372352627    1.0594388605
H        3.1729881500    0.6947258387   -0.0614894255
H        0.4367402558   -2.0389724226    1.0617027485
H       -0.8317215141   -1.4497805171   -0.0503730836
H        0.2609632089   -2.7527921316   -0.5577496793
H        1.0704150234    0.0527547982   -0.0982164789
16   
Generated by ForceBalance from scan.xyz: Frame 4 of 24
C        2.4016518225   -1.1876592625   -0.9975916955
C        4.8402515822   -0.3180576818   -1.1110022431
C        4.6372411183   -0.9475358588    0.2332441239
C        3.4623357147   -0.2688086284   -0.4720660538
C        0.2787432545   -1.7982951928    0.0610085359
N        1.0772969491   -0.8346400522   -0.7135505008
O        2.6805755104   -2.2593574925   -1.5268420712
H        5.3918597126    0.6148775168   -1.1735862130
H        4.9349812238   -0.9861274197   -1.9608131437
H        4.6006174608   -2.0306546492    0.2796195769
H        5.0317334223   -0.4469496624    1.1124626446
H        3.1385129935    0.6854389781   -0.0646610796
H        0.6231522364   -1.8754363139    1.1011755849
H       -0.7702047990   -1.4906458722    0.0514026345
H        0.3561901658   -2.7788435418   -0.4101946208
H        1.0281882916    0.0844801394   -0.2835604321
16   
Generated by ForceBalance from scan.xyz: Frame 5 of 24
C        2.4013963200   -1.1989318492   -1.0915889033
C        4.8330448317   -0.2979470825   -1.0514643800
C        4.5804727296   -1.0003519409    0.2455158073
C        3.4258644125   -0.2976408425   -0.4732759694
C        0.3689640065   -1.7652852109    0.1260674137
N        1.0454802507   -0.8852636377   -0.8479087051
O        2.7178208292   -2.2416736301   -1.6506378391
H        5.3729511229    0.6437745869   -1.0402235175
H        4.9723312562   -0.9170038487   -1.9317715184
H        4.5541465443   -2.0846528968    0.2333483030
H        4.9275870019   -0.5426754745    1.1670249262
H        3.0723501942    0.6286991491   -0.0285157557
H        0.8163301417   -1.7060075495    1.1282787344
H       -0.6850956216   -1.4825277361    0.1876144559
H        0.4279505517   -2.7963558926   -0.2264912274
H        0.9765122102    0.0734777822   -0.5133673926
16   
Generated by ForceBalance from scan.xyz: Frame 6 of 24
C        2.4381264532   -1.1635278229   -1.0254311048
C        4.8357404964   -0.2683307074   -0.8836676451
C        4.7697254963   -1.4164722328    0.0721291429
C        3.5162924908   -0.5847601063   -0.1785386523
C        0.3704011454   -1.3450039526    0.2461077447
N        1.1395012927   -0.6203442750   -0.7917879232
O        2.6625707499   -1.9156502945   -1.9670257664
H        5.3382702171    0.6433616489   -0.5757244514
H        4.8701815687   -0.4958403730   -1.9437189274
H        4.7639697016   -2.4162399782   -0.3502213615
H        5.2398767390   -1.3156414873    1.0455774341
H        3.1937389635    0.1019359370    0.5964654487
H       -0.6137184286   -0.8798639896    0.3456649835
H        0.2439279218   -2.4102209179    0.0105114714
H        0.8795492510   -1.2608316779    1.2111645746
H        0.6433818846   -0.7679319255   -1.6727078856
16   
Generated by ForceBalance from scan.xyz: Frame 7 of 24
C        2.4230401778   -1.1726440609   -1.1337261406
C        4.8042480195   -0.2608172989   -0.8486726833
C        4.7110316230   -1.4588218765    0.0437349497
C        3.4628976584   -0.6220351860   -0.2175833211
C        0.4207539721   -1.2949414377    0.2839249028
N        1.1085027549   -0.7205945081   -0.8893629337
O        2.7017922325   -1.8269960970   -2.1346325162
H        5.2880231305    0.6355934998   -0.4731596986
H        4.8845397917   -0.4344171317   -1.9163058125
H        4.7332619413   -2.4349182118   -0.4302841906
H        5.1410987399   -1.4066117232    1.0393568579
H        3.1072919209    0.0181098869    0.5828347064
H       -0.5602290429   -0.8240965604    0.3875841153
H        0.2902032968   -2.3822548607    0.2035403817
H        0.9911801340   -1.0822694930    1.1922701934
H        0.5731372045   -0.9614167113   -1.7240376048
16   
Generated by ForceBalance from scan.xyz: Frame 8 of 24
C        2.4904583225   -1.1477899190   -1.1877695007
C        4.8439164451   -0.2202187972   -0.7531868106
C        4.7269047634   -1.4661156184    0.0690603873
C        3.4824884471   -0.6251897160   -0.2016648249
C        0.5131992943   -1.2479227965    0.3087909882
N        1.1520583189   -0.8203300954   -0.9453256029
O        2.8304017067   -1.7036270097   -2.2309386238
H        5.3039728163    0.6570758529   -0.3089169694
H        4.9710498170   -0.3359104945   -1.8239988808
H        4.7800121786   -2.4148668856   -0.4552334044
H        5.1135304597   -1.4646577675    1.0837284446
H        3.0921180773   -0.0346591885    0.6200836554
H       -0.4959353497   -0.8303378962    0.3534815998
H        0.4501838599   -2.3405970313    0.3974937378
H        1.0690061372   -0.8644777450    1.1673079406
H        0.6165118323   -1.1428621805   -1.7500496918
16   
Generated by ForceBalance from scan.xyz: Frame 9 of 24
C        2.4793415255   -1.1376488662   -1.2382999880
C        4.8201496296   -0.2174372947   -0.7183201371
C        4.6981761250   -1.5142448275    0.0211215284
C        3.4544986086   -0.6589391592   -0.2120703763
C        0.5305792820   -1.1898289517    0.3353473338
N        1.1327127931   -0.9219367944   -0.9746156239
O        2.8438961858   -1.6056209581   -2.3177046120
H        5.2741126600    0.6299155682   -0.2136617808
H        4.9609089495   -0.2658229482   -1.7925412237
H        4.7609766976   -2.4272324609   -0.5620918306
H        5.0707671213   -1.5769644095    1.0391019745
H        3.0570196826   -0.1277601927    0.6454077276
H       -0.5281073587   -0.9226365728    0.2925150806
H        0.6159899738   -2.2427547916    0.6349224875
H        0.9922458753   -0.5708848843    1.1073255054
H        0.5854935774   -1.2986584140   -1.7449870343
16   
Generated by ForceBalance from scan.xyz: Frame 10 of 24
C        2.5215324267   -1.3147196980   -1.2587977543
C        4.7206715451   -0.0891340765   -0.7478906908
C        4.7526282267   -1.3714416250    0.0248300591
C        3.4149043578   -0.6851348760   -0.2383960800
C        0.5334052830   -1.1877080315    0.2825421633
N        1.1608772441   -1.2377016740   -1.0380369264
O        2.9661987274   -1.8229316313   -2.2905380883
H        5.0618670097    0.8211634593   -0.2643955303
H        4.8767132004   -0.1490052046   -1.8195206728
H        4.9315534798   -2.2839477761   -0.5342836798
H        5.1193495546   -1.3611621130    1.0468096492
H        2.9483841160   -0.1874331916    0.6040157091
H        0.7288285181   -0.2318065934    0.7763043524
H       -0.5477567537   -1.2697645349    0.1514031331
H        0.8642632061   -1.9997069071    0.9423351919
H        0.6539577727   -1.7629810737   -1.7433524330
16   
Generated by ForceBalance from scan.xyz: Frame 11 of 24
C        2.5439766013   -1.3634203177   -1.2542816414
C        4.6870655988   -0.0603296177   -0.6956061140
C        4.8012722668   -1.3935998323   -0.0228919959
C        3.4256239863   -0.7609841279   -0.2060970792
C        0.5296804749   -1.1182810039    0.2607761607
N        1.1910472495   -1.3618249443   -1.0163209999
O        3.0004622608   -1.8178221786   -2.3072289341
H        4.9954811783    0.8281092725   -0.1529356509
H        4.8204545467   -0.0332821217   -1.7717281631
H        5.0115293492   -2.2514085554   -0.6528952382
H        5.1908177342   -1.4389542224    0.9896517809
H        2.9556579396   -0.3531541504    0.6813815505
H        0.6713356173   -0.0855031602    0.5945789962
H       -0.5428203155   -1.2746281901    0.1270851798
H        0.8764646571   -1.7958037111    1.0505884122
H        0.6696812618   -1.8554147963   -1.7314943225
16   
Generated by ForceBalance from scan.xyz: Frame 12 of 24
C        2.5368135927   -1.4370567207   -1.2454374162
C        4.6287012281   -0.0535669631   -0.6802090795
C        4.8386911186   -1.4185291015   -0.1003369282
C        3.4262036415   -0.8543468789   -0.1919741865
C        0.5111749964   -1.0538693149    0.2359451544
N        1.1949052461   -1.4953434082   -0.9722980509
O        2.9828069370   -1.8490567611   -2.3207269535
H        4.9113536719    0.8149345009   -0.0929579941
H        4.7190943754    0.0485125184   -1.7564004296
H        5.0681234324   -2.2222055469   -0.7918260716
H        5.2689924227   -1.5051727440    0.8928236878
H        2.9709855514   -0.5294399110    0.7365157930
H        0.6484718212    0.0181131572    0.4166285823
H       -0.5583702610   -1.2355682070    0.1114345478
H        0.8428696912   -1.6068291115    1.1221872404
H        0.6480596399   -1.9014299009   -1.7216393746
16   
Generated by ForceBalance from scan.xyz: Frame 13 of 24
C        2.7014775839   -1.6847878376    0.2611510456
C        4.6379524222   -1.1048372728   -1.3283077145
C        4.7337764918   -0.1701571660   -0.1619832652
C        3.3650688016   -0.6664352213   -0.6115209524
C        0.4228682406   -0.9347000039   -0.5501397542
N        1.3305890441   -1.6484126286    0.3411192155
O        3.3513407702   -2.5084775243    0.9113568211
H        4.7985413536   -0.7140760529   -2.3285879149
H        4.9379100757   -2.1346208214   -1.1654478147
H        5.0960847958   -0.5794972717    0.7748951011
H        4.9600821527    0.8756926778   -0.3461866038
H        2.7353162834    0.0465820807   -1.1309683241
H        0.5598785531   -1.2133641676   -1.6021286968
H       -0.6021286850   -1.1811506077   -0.2651420297
H        0.5380240615    0.1496023808   -0.4545213597
H        0.9521782598   -2.4147902079    0.8855419424
16   
Generated by ForceBalance from scan.xyz: Frame 14 of 24
C        2.6827817658   -1.6431142598    0.2905718051
C        4.5804694487   -1.0676340183   -1.3513296974
C        4.7763493689   -0.2165366301   -0.1348082270
C        3.3648788906   -0.6108783304   -0.5491150929
C        0.4190691043   -0.9888926871   -0.5989001021
N        1.3115690734   -1.5453701984    0.4179985527
O        3.3140648650   -2.5075782886    0.9026671209
H        4.7192081061   -0.6228850919   -2.3321317656
H        4.8320587951   -2.1197314528   -1.2672986971
H        5.1558719488   -0.7023372772    0.7575466523
H        5.0488257336    0.8263972209   -0.2647157142
H        2.7520108018    0.1655357839   -0.9925042354
H        0.5637774921   -1.4430761990   -1.5872909441
H       -0.6115633553   -1.1684734794   -0.2852731822
H        0.5475231168    0.0934648716   -0.6871033879
H        0.9434724091   -2.3359008870    0.9375193849
16   
Generated by ForceBalance from scan.xyz: Frame 15 of 24
C        2.6312313586   -1.4753806451    0.3578482414
C        4.5128426178   -1.2076667146   -1.3854097916
C        4.8520838899   -0.3242172650   -0.2245197150
C        3.3902064078   -0.5769522055   -0.5640955487
C        0.3940855574   -0.9603810113   -0.6454911894
N        1.2716393719   -1.2279335164    0.4984811673
O        3.1918228295   -2.3288630022    1.0465545383
H        4.6585947808   -0.8316258336   -2.3935738244
H        4.6521177179   -2.2759425876   -1.2549286502
H        5.2139382976   -0.8028195597    0.6788678222
H        5.2306412351    0.6739682305   -0.4222564802
H        2.8474305590    0.2416941704   -1.0230325836
H        0.7123454907   -0.0601943124   -1.1751681823
H        0.3622546771   -1.7931112267   -1.3604997316
H       -0.6171956137   -0.7796579851   -0.2730712338
H        0.8813980103   -1.9104197768    1.1440588349
16   
Generated by ForceBalance from scan.xyz: Frame 16 of 24
C        2.6309032159   -1.4632954489    0.3066635220
C        4.5330620635   -1.1429104255   -1.4144409499
C        4.8825662843   -0.3400815470   -0.1997911838
C        3.4170568911   -0.5406918280   -0.5653512328
C        0.3799265536   -1.0250295547   -0.6420819719
N        1.2893469044   -1.1224375834    0.5099878831
O        3.1554496103   -2.3829896759    0.9325537837
H        4.6961418999   -0.7091001169   -2.3964065777
H        4.6485397881   -2.2200467482   -1.3490432189
H        5.2270079005   -0.8793066604    0.6758685898
H        5.2813755826    0.6608899544   -0.3327100267
H        2.8917411581    0.3177115471   -0.9697919427
H        0.7601543254   -0.2998432772   -1.3649504594
H        0.2459602366   -1.9868204417   -1.1547150150
H       -0.5941174321   -0.6694495352   -0.2963617688
H        0.9204137172   -1.7689825759    1.2058945061
16   
Generated by ForceBalance from scan.xyz: Frame 17 of 24
C        2.5923211749   -1.4522741843    0.2493329198
C        4.5521084137   -1.1151393806   -1.4084309068
C        4.8890607519   -0.3811225519   -0.1483979740
C        3.4278043648   -0.5234624917   -0.5646790828
C        0.3234973779   -1.0847957258   -0.6150922674
N        1.2780100598   -1.0067181625    0.5084346904
O        3.0549047367   -2.4445459152    0.8053451575
H        4.7554426228   -0.6396640987   -2.3631772255
H        4.6360950850   -2.1970807945   -1.3916593403
H        5.1938699107   -0.9695740911    0.7102281159
H        5.3160740148    0.6143907692   -0.2205995347
H        2.9328634922    0.3678691181   -0.9354168165
H        0.6869249547   -0.4875192182   -1.4558414617
H        0.1677606239   -2.1144898805   -0.9632620150
H       -0.6351081599   -0.6662718644   -0.2977783068
H        0.9338385884   -1.5988464341    1.2650224157
16   
Generated by ForceBalance from scan.xyz: Frame 18 of 24
C        2.5447769763   -1.4130710905    0.1669912587
C        4.5768944717   -1.0943657543   -1.4058907460
C        4.8996173409   -0.4372312368   -0.1020220182
C        3.4471209605   -0.4927083860   -0.5768363634
C        0.2488363718   -1.1449853338   -0.5958191172
N        1.2545679896   -0.8776091029    0.4581574884
O        2.9254542310   -2.4748646193    0.6469220205
H        4.8351900094   -0.5834005236   -2.3284103442
H        4.6109357561   -2.1786427332   -1.4393993344
H        5.1457041197   -1.0780182544    0.7379237954
H        5.3703204518    0.5409872622   -0.1089087701
H        3.0025686816    0.4369136883   -0.9150675160
H        0.5462956590   -0.6508274949   -1.5258551931
H        0.1225360092   -2.2174553049   -0.7959236002
H       -0.7099288452   -0.7223391095   -0.2845375839
H        0.9489502695   -1.3943842155    1.2848796715
16   
Generated by ForceBalance from scan.xyz: Frame 19 of 24
C        2.5331516296   -1.4747343136    0.2149098924
C        4.3820702597   -0.6484292542   -1.3579337153
C        4.9401190721   -0.5269461115    0.0250590498
C        3.4432267575   -0.3541077803   -0.1848508026
C        0.2642346288   -1.5875388265   -0.6635494127
N        1.1723764085   -1.1513400987    0.4160985745
O        2.9118793116   -2.6393867064    0.2172613910
H        4.5448257370    0.1615966220   -2.0625930635
H        4.3069054294   -1.6426116634   -1.7851195004
H        5.2351925013   -1.4449263341    0.5228719301
H        5.5093759751    0.3604183165    0.2838853097
H        3.0472009568    0.6560595791   -0.1251114184
H        0.3534192787   -2.6680649195   -0.7874885929
H       -0.7652586556   -1.3581337389   -0.3765125418
H        0.4869316518   -1.1001239568   -1.6232205966
H        1.0783196895   -0.1437059996    0.5240233399
16   
Generated by ForceBalance from scan.xyz: Frame 20 of 24
C        2.5140971459   -1.4271364459    0.1344713371
C        4.4434576386   -0.6022707161   -1.3377902911
C        4.9584838371   -0.5689010421    0.0686682089
C        3.4796430094   -0.3260509533   -0.1831148374
C        0.1876113549   -1.6482040906   -0.5996593970
N        1.1776704751   -1.0501066547    0.3104674156
O        2.8493350565   -2.6075004055    0.1060182889
H        4.6638140906    0.2315771105   -1.9976162240
H        4.3471272630   -1.5722042825   -1.8137985972
H        5.2014984417   -1.5208886288    0.5292444224
H        5.5536517596    0.2812119816    0.3874813067
H        3.1212088421    0.6953903421   -0.0850735637
H        0.3184372234   -2.7309734125   -0.5996480250
H       -0.8193992572   -1.4204239362   -0.2403819384
H        0.2971395531   -1.2768021551   -1.6275582658
H        1.0807360704   -0.0388395651    0.3154732131
16   
Generated by ForceBalance from scan.xyz: Frame 21 of 24
C        2.4997994502   -1.4064687026   -0.0208756252
C        4.5233599895   -0.5414851490   -1.3392085437
C        4.9571762090   -0.6047327651    0.0937291849
C        3.5007679987   -0.3112460361   -0.2281234950
C        0.1204148032   -1.7007131971   -0.5500880483
N        1.1857050489   -0.9973555979    0.1738075030
O        2.8045741754   -2.5937583297   -0.1162310345
H        4.8010172458    0.3236622430   -1.9338784419
H        4.4345033817   -1.4792407532   -1.8772460675
H        5.1536158662   -1.5878433150    0.5087839842
H        5.5495986501    0.2104843693    0.4975602512
H        3.1588586056    0.7105228622   -0.0840158871
H        0.2682244910   -2.7746598367   -0.4346150545
H       -0.8495224251   -1.4316770862   -0.1237459406
H        0.1259039244   -1.4570863453   -1.6207143561
H        1.0833226082    0.0108748678    0.1253744723
16   
Generated by ForceBalance from scan.xyz: Frame 22 of 24
C        2.4867629525   -1.3794017594   -0.1666738108
C        4.6101681214   -0.5046350831   -1.3182586644
C        4.9427661636   -0.6388082237    0.1371524547
C        3.5183349288   -0.2984832235   -0.2730874795
C        0.0706595072   -1.7345751116   -0.4674030625
N        1.1918321565   -0.9459750406    0.0428282631
O        2.7666714495   -2.5698313270   -0.3088612894
H        4.9488179906    0.3771047226   -1.8539877224
H        4.5403193292   -1.4171417582   -1.9008619300
H        5.0912466945   -1.6426338888    0.5212369637
H        5.5205070969    0.1454523631    0.6166030730
H        3.1869763143    0.7230128153   -0.1039990023
H        0.2506073420   -2.7852181243   -0.2390804488
H       -0.8526195499   -1.4172045873    0.0242921506
H       -0.0419527345   -1.6280736789   -1.5541789846
H        1.0707999255    0.0576955703   -0.0249359474
16   
Generated by ForceBalance from scan.xyz: Frame 23 of 24
C        2.4751122689   -1.3518503229   -0.3095947922
C        4.6831427304   -0.4707048095   -1.2952901124
C        4.9144607399   -0.6689497011    0.1728165556
C        3.5271956484   -0.2855522067   -0.3195033775
C        0.0441991068   -1.7601274127   -0.3906376306
N        1.1911414377   -0.9051349166   -0.1072715282
O        2.7415842739   -2.5434279136   -0.4777231994
H        5.0735873542    0.4240788124   -1.7707678498
H        4.6387707679   -1.3583545803   -1.9175891514
H        5.0203404479   -1.6895538279    0.5253968294
H        5.4705446705    0.0847334088    0.7219718394
H        3.2009431210    0.7339156183   -0.1291335446
H        0.2844910216   -2.7769053093   -0.0789543355
H       -0.8231061104   -1.4070223805    0.1735274202
H       -0.2020318357   -1.7756004317   -1.4601459621
H        1.0462931301    0.0950727971   -0.1540598133
16   
Generated by ForceBalance from scan.xyz: Frame 24 of 24
C        2.4855052787   -1.3500713728   -0.4138966902
C        4.7140237485   -0.3765772601   -1.2627919770
C        4.9309186420   -0.7803662409    0.1652861287
C        3.5538917391   -0.3081682950   -0.2798227756
C        0.0648467784   -1.8113599115   -0.1838580083
N        1.2195883633   -0.9280628437   -0.1071912944
O        2.7267284022   -2.4998078958   -0.7902484468
H        5.1244465663    0.5676897453   -1.6076228929
H        4.6585679833   -1.1695017603   -2.0011782255
H        5.0198233520   -1.8413690523    0.3740734962
H        5.4941033184   -0.1187604265    0.8165648688
H        3.2420606713    0.6813522341    0.0454110703
H       -0.1332721268   -2.3111736894    0.7724848745
H       -0.8189328512   -1.2374408744   -0.4762841978
H        0.2642153826   -2.5763432628   -0.9354121544
H        1.0960515588    0.0074511667    0.2537242686
