65

C      3.84361    3.92479   -2.08356
C      3.91285    3.07505   -1.21767
C      6.59286    7.38489    0.60116
C      5.68724    6.62561   -0.14488
C      3.83505    4.80990   -4.40411
C      3.66963    7.18049   -4.76543
C      3.76901    5.00557   -3.01223
C      4.17574    8.54446   -0.16151
C      3.60002    7.41598   -3.38816
C      6.33315    8.70370    0.97342
C      3.78601    5.88569   -5.29264
C      4.49002    7.22110   -0.50716
C      3.64608    6.31841   -2.52193
C      5.10291    9.29121    0.59128
C      2.80344    9.01575   -0.54935
C      3.52582    8.83752   -2.87975
C      2.83036    3.53010    1.54707
C      4.35126    3.61325    1.85447
C      2.65093    2.23110    0.74130
C      5.03348    2.55256    0.94735
C      3.95487    2.13670   -0.09113
C      3.82190    5.66513   -6.78763
C      8.48038   12.21898   -0.81294
C      9.28350    9.82533   -0.69446
C      4.11575   11.48668    0.21747
C      7.82851   10.80445    1.16505
C      7.38678    9.45647    1.76462
C      8.14889   10.79710   -0.33874
O      1.95560    9.34129    0.25113
O      3.50577    6.48071   -1.15261
O      2.50744    9.05523   -1.88053
O      6.89069    9.62612    3.10356
O      4.92383   10.58295    0.97689
H      7.53450    6.93544    0.90649
H      5.88181    5.59496   -0.42187
H      3.92950    3.79463   -4.77959
H      3.62407    8.02892   -5.44639
H      4.49717    9.16111   -2.49318
H      3.25247    9.50187   -3.70189
H      2.21679    3.54135    2.45244
H      2.52644    4.38417    0.93516
H      4.72998    4.61735    1.64994
H      4.55959    3.40442    2.90807
H      2.60713    1.36291    1.41049
H      1.75172    2.22632    0.11985
H      5.94572    2.91799    0.46845
H      5.30465    1.66639    1.53158
H      4.12819    1.12223   -0.46609
H      2.81352    5.71527   -7.21529
H      4.42834    6.42571   -7.28933
H      4.23689    4.68444   -7.03590
H      9.38073   12.59931   -0.31492
H      8.66367   12.24335   -1.89296
H      7.66069   12.91267   -0.59407
H     10.19666   10.07101   -0.13790
H      9.01909    8.78816   -0.46859
H      9.52127    9.87805   -1.76265
H      4.52169   12.48075    0.41742
H      3.07132   11.44010    0.52956
H      4.19197   11.28130   -0.85654
H      8.72672   11.12990    1.71255
H      7.04472   11.53776    1.36587
H      8.26733    8.80027    1.80362
H      7.24605   10.46835   -0.87008
H      7.43278   10.30551    3.53603
