53

C     -0.90242    1.39980    1.59450
C     -0.83152    0.24009    0.78457
C     -5.24528    3.78324    4.85846
C     -1.96866    1.59813    2.46053
C     -4.82897    2.84791    3.90341
C     -5.04839   -1.22591   -0.92934
C     -6.68464   -2.64606    0.13973
C     -1.81363   -0.74276    0.83136
C     -5.49074    3.39925    6.17342
C     -5.98183   -0.86169   -1.90118
C     -7.63247   -2.29685   -0.82776
C     -4.88763    1.11714    5.60840
C     -2.98749    0.62563    2.51317
C     -4.65314    1.50650    4.27439
C     -4.19819    0.51678    3.27622
C     -5.38693   -2.12136    0.09722
C     -2.89051   -0.54728    1.71366
C     -5.31580    2.05741    6.55443
C     -7.26012   -1.40986   -1.83079
C     -4.78708   -0.69675    2.92349
C     -6.04478   -1.31177    3.40584
C     -6.42428   -0.96173   10.27619
C     -7.31041    0.25432   10.11415
C     -5.84819    0.33269    9.74038
C     -4.37035   -2.49826    1.15774
C     -5.45762    0.40308    8.29219
N     -3.97661   -1.35403    1.99151
O     -6.29827   -2.50025    3.31232
O     -6.95591   -0.48262    3.97438
O     -5.58386    1.76823    7.85877
F     -8.17368   -1.06178   -2.77490
H     -0.10849    2.13898    1.53369
H      0.01400    0.11148    0.11412
H     -5.38879    4.82100    4.56930
H     -2.02364    2.48361    3.08742
H     -4.66022    3.14739    2.87351
H     -4.04993   -0.79890   -0.96905
H     -6.96455   -3.31538    0.94730
H     -1.73361   -1.62893    0.20928
H     -5.82035    4.11379    6.92182
H     -5.73430   -0.17063   -2.70117
H     -8.64276   -2.69361   -0.80441
H     -4.72339    0.08240    5.88337
H     -6.14048   -1.26525   11.27919
H     -6.56045   -1.78577    9.58092
H     -8.03490    0.25137    9.30465
H     -7.63547    0.77781   11.00798
H     -5.20164    0.89433   10.40994
H     -4.76624   -3.27684    1.80526
H     -3.45521   -2.87709    0.69843
H     -6.11190   -0.23713    7.68578
H     -4.42039    0.07104    8.15074
H     -6.62151    0.43382    4.00601
