65

C      5.01557   -4.53335    0.73008
C      6.68106   -2.94171    1.48081
C      3.71983   -2.22431   -0.66200
C     -0.58558   -0.88716   -3.72559
C      5.84171   -5.57969    1.14683
C      7.50491   -3.98345    1.89565
C      2.85536   -1.20559   -1.06946
C     -0.31487    0.10164   -2.78471
C      4.50894   -0.86835    1.18339
C     -0.31603   -1.62212   -1.06062
C      5.42486   -3.19788    0.89546
C      4.54424   -2.08341    0.46928
C     -0.69669   -2.24250   -3.36606
C      3.64188    0.14493    0.79309
C     -0.54509   -2.62452   -2.01640
C      7.08354   -5.31034    1.72897
C      2.79697   -0.03944   -0.30710
C     -0.18576   -0.29233   -1.44942
C      1.35036   -5.78539   -0.66884
C     -1.00067   -3.27057   -4.43897
C     -0.59153   -4.69471   -4.04594
C     -1.08276   -5.02288   -2.63332
C      2.56497    2.20028    0.30324
C     -0.46787   -4.07989   -1.58860
C      3.42801    1.51937    1.40812
C      2.67578    1.41154    2.74886
C      4.74723    2.28221    1.60376
C      1.01633   -4.39427   -1.29388
C      7.97690   -6.41449    2.20778
N      1.96981    1.11423   -0.54067
O      0.39650   -6.55489   -0.39442
O      2.59491   -5.95953   -0.49301
O     -0.31706    2.22831   -0.56332
O      0.02529    0.35069    1.10635
F      7.56320   -7.64220    1.81734
F      9.26060   -6.27048    1.75986
F      8.07085   -6.45136    3.57215
S      0.26291    0.91938   -0.23065
H      4.04985   -4.79767    0.29204
H      7.02933   -1.91759    1.58562
H      3.75283   -3.14759   -1.23080
H     -0.69993   -0.60841   -4.77172
H      5.49728   -6.60016    1.01381
H      8.47658   -3.76994    2.33299
H      2.24425   -1.33192   -1.95492
H     -0.20395    1.14436   -3.06381
H      5.13276   -0.74025    2.06472
H     -0.18769   -1.88675   -0.01545
H     -2.08465   -3.25150   -4.62547
H     -0.52558   -2.96781   -5.38022
H     -1.00186   -5.40684   -4.77184
H      0.49887   -4.79368   -4.09205
H     -2.17843   -4.93000   -2.60922
H     -0.83251   -6.04474   -2.34194
H      1.78590    2.85285    0.69964
H      3.19823    2.79618   -0.36189
H     -1.01241   -4.21198   -0.64763
H      2.49906    2.40913    3.17008
H      3.26768    0.83749    3.47032
H      1.71320    0.91302    2.61908
H      4.55463    3.30983    1.93551
H      5.32367    2.32164    0.67354
H      5.36841    1.79938    2.36572
H      1.40012   -3.64762   -0.59247
H      1.61804   -4.27156   -2.20313
