29   

C        1.1737980926   -1.0437481783    0.1871713831
C        1.5359115055   -2.1914457555    0.8948166375
C        1.0123725297    0.1668158545    0.8650483681
C        1.7281448383   -2.1279504586    2.2791407354
C        1.1999698848    0.2265163616    2.2513327367
C        1.9414812032   -0.1054455419    6.4290097728
C        2.8856773561   -1.1619405773    6.1909935461
C        1.5456122861   -0.9251810089    2.9872827664
C        1.2015942392    0.0118984549    5.2870464126
C       -0.0428085619    0.8342774760    5.2069153462
C       -2.2483066927    1.4706727049    4.3055592081
C       -1.4021903258   -0.8423476936    3.9394478456
N        2.7132778477   -1.6383660398    4.9856193940
N        1.7321341875   -0.8968843487    4.3879068174
N       -1.1475102157    0.5180650678    4.4048413920
O       -0.1681579353    1.7764317741    5.9949470229
H        1.0273429086   -1.0912696889   -0.8863072950
H        1.6710744614   -3.1326094623    0.3731766101
H        0.7473594815    1.0634753643    0.3157492651
H        2.0128800147   -3.0249844953    2.8186515843
H        1.0893106482    1.1820927476    2.7500059553
H        1.7921650121    0.4341067742    7.3573242623
H        3.6072026116   -1.5313224330    6.9105775149
H       -2.8542486350    1.2625799666    3.4180043692
H       -1.8642415069    2.4917494010    4.2092839087
H       -2.8834994412    1.4111946205    5.1949708173
H       -2.4547157845   -1.0996500902    4.0952286164
H       -0.8153875069   -1.5753561220    4.5011145050
H       -1.1801718188   -0.9364374561    2.8722929941
29   

C        1.1639811332   -1.0078246821    0.1712672178
C        1.5425468647   -2.1529863682    0.8740753308
C        0.9909024978    0.1983544618    0.8535095906
C        1.7384986173   -2.0916232447    2.2580394512
C        1.1827903917    0.2561206938    2.2391271915
C        1.8416430298   -0.1680515248    6.4564804722
C        2.7891380125   -1.2227025261    6.2199879330
C        1.5438129698   -0.8935880861    2.9715873507
C        1.1649125257    0.0005662406    5.2839304068
C       -0.0354678080    0.8745839356    5.1241344206
C       -2.2579328876    1.4497813596    4.2111496919
C       -1.4207530006   -0.8932239062    4.0188955348
N        2.6758007713   -1.6443281234    4.9867837381
N        1.7287160745   -0.8712500517    4.3734629259
N       -1.1705002789    0.4950784500    4.3962620348
O       -0.0809562703    1.9386467130    5.7490483772
H        1.0139791214   -1.0535300582   -0.9017873222
H        1.6868930251   -3.0908096474    0.3489425949
H        0.7139210970    1.0938474555    0.3081850020
H        2.0343124703   -2.9879789089    2.7926100805
H        1.0657585884    1.2113853407    2.7366748525
H        1.6595964838    0.3468728030    7.3926217695
H        3.4730391091   -1.6274159002    6.9570986178
H       -2.8671918639    1.1699717589    3.3458453783
H       -1.8622190446    2.4531805550    4.0217619323
H       -2.8932257367    1.4787545445    5.1018665402
H       -2.4748406141   -1.1408433736    4.1795286389
H       -0.8382294570   -1.5873158378    4.6324355258
H       -1.1841981706   -1.0557152034    2.9629590062
29   

C        1.1454390661   -0.9761080786    0.1833819436
C        1.5224089288   -2.1164204781    0.8945810488
C        0.9904971189    0.2385451498    0.8541972251
C        1.7331762889   -2.0420002746    2.2758401006
C        1.1983810807    0.3098662080    2.2366717560
C        1.7945349227   -0.1589855521    6.4883450672
C        2.7295513343   -1.2269376661    6.2587796453
C        1.5558639696   -0.8350579968    2.9794748351
C        1.1735022961    0.0527941478    5.2934849039
C        0.0269390464    0.9823926843    5.0549213552
C       -2.2091842049    1.5285836052    4.1407113924
C       -1.4301033978   -0.8460137443    4.1711797493
N        2.6590745111   -1.6105032943    5.0094423248
N        1.7509629454   -0.8029417044    4.3808963546
N       -1.1522630469    0.5645665411    4.4265726466
O        0.0913661450    2.1411820182    5.4759504359
H        0.9830691264   -1.0318067964   -0.8873777421
H        1.6534532705   -3.0608739767    0.3779832769
H        0.7158566232    1.1308883947    0.3025124403
H        2.0261614751   -2.9359801300    2.8158026004
H        1.0991384898    1.2745791352    2.7194938176
H        1.5941908278    0.3433736976    7.4272628713
H        3.3766914411   -1.6651726127    7.0097823273
H       -2.7899727238    1.2059486626    3.2707538960
H       -1.7892495520    2.5115824144    3.9033283085
H       -2.8774655311    1.6249421601    5.0018866778
H       -2.4922347878   -1.0552740240    4.3331915237
H       -0.8722256315   -1.4944532088    4.8540491611
H       -1.1773405688   -1.1069133385    3.1388329544
29   

C        1.1773520960   -0.9942785954    0.1561689169
C        1.5429843507   -2.1489173212    0.8496020072
C        1.0553289874    0.2153020378    0.8422299968
C        1.7733618147   -2.0939877726    2.2287060789
C        1.2841488843    0.2676052403    2.2221335353
C        1.8058550888   -0.3615989084    6.4940797985
C        2.7304938616   -1.4334931130    6.2402750377
C        1.6279852662   -0.8922532256    2.9491126875
C        1.2447127771   -0.0707515946    5.2871170736
C        0.1549721515    0.9173344362    5.0037230148
C       -2.0969059530    1.4841221232    4.1209638270
C       -1.3954609878   -0.9088406183    4.3140741822
N        2.7070709260   -1.7418747412    4.9681323097
N        1.8384089579   -0.8837426295    4.3497872294
N       -1.0736397833    0.5060135947    4.4754407150
O        0.3357994361    2.1149169581    5.2399922055
H        0.9987982459   -1.0347903971   -0.9126721544
H        1.6494759974   -3.0897006999    0.3208715978
H        0.7906639211    1.1191501072    0.3045608905
H        2.0559357703   -3.0001407955    2.7535896610
H        1.2142880412    1.2314858699    2.7116498806
H        1.5832760589    0.0972072291    7.4498660750
H        3.3393734093   -1.9261025078    6.9895698146
H       -2.6219238922    1.1652853192    3.2149418102
H       -1.6587516152    2.4649195251    3.9101722857
H       -2.8193038725    1.5880575474    4.9362304048
H       -2.4677684536   -1.0714407511    4.4617569644
H       -0.8750600512   -1.5242431710    5.0548593654
H       -1.1250614449   -1.2500908745    3.3098427125
29   

C        1.2177391124   -1.0011174527    0.1140947580
C        1.5974243973   -2.1461444969    0.8153673722
C        1.0793048640    0.2107777879    0.7924963993
C        1.8245840050   -2.0794182124    2.1944729993
C        1.3056507310    0.2749938952    2.1723270503
C        1.7024408892   -0.4469933046    6.4753093035
C        2.6633404865   -1.4867552504    6.2237941617
C        1.6627191305   -0.8753069348    2.9084394203
C        1.2135677790   -0.1039027503    5.2510641705
C        0.1515225683    0.9037023445    4.9194406818
C       -2.1453026198    1.4453094835    4.1289315494
C       -1.4526432884   -0.9386733181    4.4723940961
N        2.7232210537   -1.7279322008    4.9383513143
N        1.8712832429   -0.8589279695    4.3103314219
N       -1.1158577200    0.4813457616    4.5072342594
O        0.4045305853    2.1100874189    4.9669861610
H        1.0413694745   -1.0505265413   -0.9547029186
H        1.7172149024   -3.0887664572    0.2928547647
H        0.8045167717    1.1081304424    0.2490848972
H        2.1176547766   -2.9794584598    2.7239465707
H        1.2265169141    1.2431556195    2.6510650141
H        1.4210883311   -0.0359041180    7.4371094981
H        3.2392130738   -2.0045662925    6.9821316011
H       -2.2405332325    1.4803031758    3.0391742796
H       -1.9135933191    2.4523816442    4.4893464181
H       -3.1088371852    1.1612810873    4.5632277883
H       -2.5330885269   -1.0797650028    4.5749658788
H       -0.9785377976   -1.4790553632    5.2979922912
H       -1.1322476623   -1.3804945566    3.5233432066
29   

C        1.3473677746   -1.0828284069    0.0207573727
C        1.7223798861   -2.2035490295    0.7620863305
C        1.1815820720    0.1452674749    0.6622799276
C        1.9182891593   -2.0958191571    2.1434517793
C        1.3766025646    0.2500099109    2.0444607227
C        1.6085270816   -0.4672305808    6.3885371905
C        2.6124493162   -1.4722380695    6.1708094091
C        1.7299601479   -0.8738931136    2.8211885757
C        1.1899171973   -0.1014393362    5.1446022832
C        0.1405804474    0.9081074520    4.7721946150
C       -2.2073632269    1.4634960095    4.1826877295
C       -1.5483204646   -0.9059500360    4.6865677898
N        2.7575814586   -1.6752496821    4.8860214762
N        1.9169162870   -0.8176668693    4.2259872598
N       -1.1767349383    0.4991927480    4.5546532204
O        0.4462165882    2.0917545157    4.6070035900
H        1.1962146493   -1.1631642725   -1.0499887134
H        1.8634967352   -3.1589281375    0.2689957433
H        0.9112535608    1.0249481473    0.0886000514
H        2.2091918124   -2.9784139420    2.7024538673
H        1.2816926251    1.2315135472    2.4889281735
H        1.2624708483   -0.0862800881    7.3414877844
H        3.1579704432   -1.9928357202    6.9494033694
H       -2.3400396726    1.4695539179    3.0963590387
H       -1.9469924322    2.4748394096    4.5109132972
H       -3.1592588223    1.2063338050    4.6575594223
H       -2.6219802990   -1.0048912551    4.8739600328
H       -1.0305759328   -1.3761481727    5.5284092708
H       -1.3029713406   -1.4476506638    3.7672493520
29   

C        1.5948084262   -1.1314936155   -0.1230959342
C        1.8735523754   -2.2567455453    0.6527316339
C        1.4355361823    0.1094282478    0.4945047006
C        1.9794996213   -2.1395118244    2.0432509765
C        1.5419595466    0.2229307421    1.8856799946
C        1.4482481135   -0.5482033746    6.2533924574
C        2.4848383787   -1.5268127625    6.0811849859
C        1.7957307039   -0.9027478375    2.6957442198
C        1.1108955451   -0.1518180714    4.9932783361
C        0.0592284850    0.8472490384    4.6035484399
C       -2.3206967378    1.4849976892    4.3322650338
C       -1.7126016605   -0.8470068195    5.0212709107
N        2.7197866178   -1.6928992805    4.8052974916
N        1.9070760131   -0.8366558515    4.1082084460
N       -1.2934585270    0.5069623808    4.6734307733
O        0.3782588206    1.9764862922    4.2209970149
H        1.5143891360   -1.2180890489   -1.2009360319
H        2.0109057953   -3.2225378431    0.1793969719
H        1.2415664924    0.9929161722   -0.1036720308
H        2.1990853441   -3.0253555119    2.6288503461
H        1.4663494528    1.2131019376    2.3101505345
H        1.0289305940   -0.2022123905    7.1900480131
H        2.9879122295   -2.0563283217    6.8820239231
H       -2.5416277502    1.4425907860    3.2613079240
H       -2.0001842443    2.4996911733    4.5901685107
H       -3.2378903695    1.2827940849    4.8943840893
H       -1.8834180695   -0.9271217196    6.0991772124
H       -0.9664450285   -1.5893629308    4.7208962651
H       -2.6386485472   -1.1013045843    4.4960116247
29   

C        1.7710602035   -1.1430317914   -0.2347683707
C        1.9396220444   -2.2804913700    0.5552502145
C        1.6576823022    0.1081793344    0.3729633201
C        1.9791402607   -2.1641568323    1.9492675979
C        1.7010180268    0.2203526332    1.7678306813
C        1.3234726951   -0.6494591006    6.1307724522
C        2.4134160616   -1.5713046770    5.9822880424
C        1.8379651529   -0.9158510621    2.5891433844
C        1.0225179113   -0.2308855503    4.8669839108
C       -0.0455616581    0.7431753639    4.4728855156
C       -2.4143039416    1.4717884606    4.4737289784
C       -1.8022865951   -0.8111175733    5.3052529506
N        2.7158615720   -1.6863348246    4.7158680090
N        1.8956230142   -0.8500845275    4.0033158437
N       -1.3848978555    0.4828906768    4.7757218260
O        0.2399787320    1.8000665705    3.9018810902
H        1.7417746814   -1.2286780897   -1.3152411161
H        2.0440434803   -3.2545093755    0.0905067217
H        1.5499897942    0.9998023056   -0.2346795493
H        2.1165585358   -3.0571721081    2.5487836132
H        1.6733091341    1.2136313432    2.1920911515
H        0.8505362317   -0.3484496506    7.0573143898
H        2.9046516780   -2.0992487724    6.7914654381
H       -2.7677911299    1.3480809613    3.4454957583
H       -2.0296237753    2.4893041427    4.5989843547
H       -3.2607713026    1.3595211933    5.1585729652
H       -1.8027698735   -0.7932162889    6.3993934643
H       -1.1446788549   -1.6147143491    4.9584237077
H       -2.8104435104   -1.0547841275    4.9551965796
29   

C        1.8731366075   -1.2133554494   -0.2512377256
C        3.0025219176   -1.5391377316    0.5010790309
C        0.6760261773   -0.9051473049    0.3969931846
C        2.9329842430   -1.5526211277    1.8988077683
C        0.6108548801   -0.9133159562    1.7954386126
C        1.1145698780   -1.0142014870    6.1068991199
C        2.1168542182   -2.0364831510    5.9716027248
C        1.7430856751   -1.2256003600    2.5779363902
C        0.9058705891   -0.5408580848    4.8435311090
C        0.1120838850    0.6510356256    4.4087066115
C       -1.9427110981    2.0343476965    4.4716679573
C       -1.9304479029   -0.2417890281    5.5190229322
N        2.4656110254   -2.1453335016    4.7157373495
N        1.7121578722   -1.2573757605    3.9944477526
N       -1.2155258333    0.8162904090    4.8137613518
O        0.6328949512    1.5145926555    3.7006846186
H        1.9250343822   -1.2017639935   -1.3341186922
H        3.9357192580   -1.7797299300    0.0044533646
H       -0.2062744135   -0.6602350220   -0.1834040913
H        3.8187124374   -1.8058767041    2.4707883344
H       -0.3401970686   -0.6906614475    2.2603155206
H        0.6846186711   -0.6508096525    7.0317578339
H        2.5391257822   -2.6126629696    6.7867812620
H       -2.4248126527    1.9265692399    3.4952746967
H       -1.2705624666    2.8984049959    4.4437886841
H       -2.7068933402    2.2444509970    5.2267009658
H       -1.8032477942   -0.1327216833    6.6004954509
H       -1.5776794072   -1.2315515748    5.2115539521
H       -2.9987791964   -0.1981016500    5.2841508060
29   

C        1.9625780196   -1.2952202633   -0.2717922741
C        3.0938144512   -1.5121752871    0.5166038516
C        0.7251114678   -1.0803350976    0.3380664911
C        2.9852922784   -1.5110229997    1.9118682880
C        0.6212951344   -1.0724818963    1.7343233993
C        0.9848953940   -1.0989085881    6.0518406207
C        2.0298547664   -2.0806814451    5.9480298664
C        1.7529997941   -1.2752118665    2.5510857138
C        0.8075588372   -0.6158368565    4.7854583254
C        0.0318693726    0.5782836466    4.3326258500
C       -1.9026028033    2.1151940245    4.4971586366
C       -1.9508788732   -0.0781160921    5.6998116702
N        2.4397566337   -2.1547261647    4.7091427317
N        1.6818332730   -1.2894420980    3.9657088271
N       -1.2271041472    0.8751587523    4.8662177961
O        0.4936794417    1.3300982378    3.4714707121
H        2.0446853237   -1.2947328600   -1.3528186864
H        4.0581047790   -1.6790568041    0.0501188163
H       -0.1575806148   -0.9186741876   -0.2700535678
H        3.8710887034   -1.6796240825    2.5140606410
H       -0.3537624559   -0.9177501719    2.1777124714
H        0.5196640760   -0.7581391832    6.9677661655
H        2.4391877728   -2.6509624746    6.7738885956
H       -2.4620343520    1.9801615816    3.5664489496
H       -1.1811752699    2.9285107657    4.3653923513
H       -2.5936808368    2.4216845464    5.2887948225
H       -1.7256845035    0.0904798031    6.7573486601
H       -1.6975743436   -1.1091868088    5.4329618110
H       -3.0297179642    0.0315903307    5.5496509239
29   

C        2.1890475538   -1.5700465921   -0.1653550338
C        3.2987760346   -1.6410128603    0.6786682986
C        0.9092873664   -1.4550679292    0.3818679555
C        3.1261846700   -1.5939092061    2.0666082124
C        0.7412419885   -1.4006638618    1.7709607853
C        0.8900675489   -1.2537646900    6.0908241973
C        1.9789249388   -2.1904048299    6.0529356552
C        1.8486395017   -1.4548081981    2.6412542671
C        0.7604808170   -0.7808675991    4.8125864785
C        0.0067297344    0.4053014798    4.3073603893
C       -1.7969580667    2.0911589390    4.4691394209
C       -1.9124012090    0.0252659630    5.8676537516
N        2.4656986416   -2.2461550956    4.8425272687
N        1.7132889139   -1.4207112316    4.0503966737
N       -1.1764994230    0.8466721062    4.9137435334
O        0.3959766508    1.0184575997    3.3103786921
H        2.3207075395   -1.6046953637   -1.2408743462
H        4.2953019463   -1.7298554385    0.2611602254
H        0.0439956906   -1.4056338998   -0.2690873814
H        3.9940952678   -1.6498552095    2.7140591900
H       -0.2607736418   -1.3198525922    2.1728994085
H        0.3783977615   -0.9269250101    6.9859930006
H        2.3643982315   -2.7393309949    6.9043539640
H       -2.3983315068    1.9161482317    3.5717538043
H       -1.0352282582    2.8462155386    4.2475949877
H       -2.4390825766    2.4999102891    5.2557907786
H       -1.6017399429    0.2553868004    6.8913682159
H       -1.7635806389   -1.0406325124    5.6674817778
H       -2.9870416773    0.2147562275    5.7794099883
29   

C        2.7420122739   -0.9867769667   -0.0930222547
C        2.7254379162    0.0359214155    0.8584207587
C        2.2625919306   -2.2540392470    0.2441861817
C        2.2196677776   -0.2065563023    2.1415886551
C        1.7648364615   -2.4939069763    1.5298792627
C        0.5217642651   -1.5770176574    5.8752412665
C        1.2578278408   -2.7951290427    5.6852728868
C        1.7141937305   -1.4726266360    2.4967085899
C        0.5018802141   -0.9512793892    4.6548423656
C       -0.3477061885    0.1682939285    4.1472933270
C       -1.9737585677    2.0110474900    4.4251663788
C       -0.7311185840    1.1696014969    6.4148540110
N        1.6251443966   -2.8929999394    4.4376722704
N        1.2167671990   -1.7581934030    3.7907118083
N       -1.0411570853    1.0430141852    4.9967788168
O       -0.4298266536    0.3979882272    2.9376911475
H        3.1260465407   -0.7981438635   -1.0890860844
H        3.1013423267    1.0200232055    0.6034280310
H        2.2728452329   -3.0527852788   -0.4887082584
H        2.2175970007    0.5960259666    2.8687085029
H        1.3964314338   -3.4810248779    1.7854751739
H        0.0056371089   -1.3155855273    6.7878147462
H        1.4447589431   -3.5411118986    6.4490793346
H       -2.6847106680    2.3528951089    5.1840463648
H       -2.5559404861    1.5551964052    3.6172572629
H       -1.4297765540    2.8748112374    4.0304922588
H        0.3328261917    0.9903943346    6.5998112769
H       -1.3372686524    0.4745291531    7.0038864780
H       -0.9408347978    2.1873498453    6.7595396256
29   

C        2.7496577796   -0.9420416318   -0.0462678727
C        2.5591395465    0.0893480714    0.8758698419
C        2.4208224212   -2.2528354557    0.3038519432
C        2.0308140459   -0.1890491001    2.1424029530
C        1.8999993001   -2.5281818929    1.5732401538
C        0.3565483123   -1.6775392129    5.8404174310
C        1.1440703294   -2.8686702504    5.6810475266
C        1.6772491560   -1.5026319110    2.5115282696
C        0.3790611164   -1.0498206716    4.6238956977
C       -0.4803542886    0.0571704468    4.1083579227
C       -1.9463164600    2.0252061271    4.4215302673
C       -0.5030325560    1.2515674705    6.3073369060
N        1.5794983259   -2.9437567764    4.4522940887
N        1.1583423117   -1.8218538512    3.7898414179
N       -0.9987273831    1.0489809487    4.9510547883
O       -0.7360489795    0.1454218243    2.9048340872
H        3.1517613534   -0.7263644865   -1.0296678613
H        2.8185182304    1.1079141823    0.6109710106
H        2.5655547623   -3.0585850629   -0.4068443077
H        1.9000016607    0.6252310650    2.8437875333
H        1.6478316927   -3.5494292266    1.8360263706
H       -0.2178854014   -1.4221263025    6.7206090921
H        1.3199077961   -3.6122118785    6.4498457133
H       -2.5405866408    2.4592402473    5.2318890024
H       -2.6452940263    1.5482159810    3.7262969487
H       -1.4141622765    2.8266011361    3.8998280366
H        0.5470724804    0.9541269619    6.3919833711
H       -1.1057863919    0.6856760506    7.0242189247
H       -0.5517637968    2.3125065516    6.5729959185
29   

C        2.7491965823   -0.8179948434    0.0333203609
C        2.4327780055    0.2010325110    0.9338041170
C        2.5432593745   -2.1500606785    0.3959890347
C        1.9018736239   -0.1115243313    2.1911040589
C        2.0192942297   -2.4593954446    1.6562784219
C        0.2473073427   -1.7243923131    5.8556301108
C        1.0924923809   -2.8790641632    5.7176707861
C        1.6719844593   -1.4493195664    2.5738117558
C        0.3014002958   -1.0834634010    4.6494969952
C       -0.5526318550    0.0291167103    4.1342942633
C       -1.8486642372    2.1144408644    4.4559358176
C       -0.2841817434    1.3338429555    6.2454013883
N        1.5938250638   -2.9132853870    4.5110706373
N        1.1515583578   -1.8024286367    3.8430418466
N       -0.9114134105    1.1095449874    4.9478131017
O       -0.9594893640    0.0132212175    2.9705622574
H        3.1540897361   -0.5761910399   -0.9428725368
H        2.5978006851    1.2367099001    0.6595191858
H        2.7860004928   -2.9465823231   -0.2982320402
H        1.6802811526    0.6992543373    2.8728662851
H        1.8626930070   -3.4977138282    1.9265880664
H       -0.3714632678   -1.4863356730    6.7111649384
H        1.2646050562   -3.6257472883    6.4842593767
H       -2.3692580911    2.5904934368    5.2929357185
H       -2.6126971402    1.6570823629    3.8184609879
H       -1.3175531710    2.8804616686    3.8827452884
H        0.7422508490    0.9534403371    6.2597898518
H       -0.8630095801    0.8508264228    7.0386055152
H       -0.2270248727    2.4064179045    6.4570463003
29   

C        2.7665807484   -0.7653477260    0.1282795232
C        2.3336977846    0.2277671179    1.0084138718
C        2.6853310888   -2.1065236853    0.5054967217
C        1.8114660224   -0.1201544149    2.2598928519
C        2.1687185296   -2.4512276735    1.7596695853
C        0.2125666732   -1.8669729342    5.8991231882
C        1.1247348130   -2.9718113254    5.7757904359
C        1.7060922568   -1.4699981242    2.6580632167
C        0.2767980633   -1.2081992148    4.7051343263
C       -0.5889520402   -0.0975406828    4.1991355012
C       -1.7205790705    2.0869694508    4.5040075941
C       -0.0285454198    1.3067659880    6.1780139579
N        1.6769708311   -2.9543681022    4.5902829166
N        1.1959826240   -1.8599714072    3.9214251208
N       -0.7894878798    1.0590882392    4.9583088352
O       -1.1541739580   -0.2030682764    3.1093466093
H        3.1659720097   -0.4962106222   -0.8430646394
H        2.4032268612    1.2714126619    0.7233450910
H        3.0197148286   -2.8832900101   -0.1728843824
H        1.5070502183    0.6787476065    2.9226893130
H        2.1098205136   -3.4973110279    2.0390527164
H       -0.4408609346   -1.6604280154    6.7373622044
H        1.3096543495   -3.7205488418    6.5373759136
H       -2.1661462847    2.5997726292    5.3623081712
H       -2.5426421774    1.6485189279    3.9286543239
H       -1.2008940454    2.8198766759    3.8794210270
H        0.9707676028    0.8635148937    6.1189613375
H       -0.5548272181    0.8971017747    7.0456880160
H        0.1093488335    2.3826574963    6.3258057476
29   

C        2.6904902606   -0.6341018730    0.1097770130
C        1.3187716490   -0.4488609099    0.2881219302
C        3.4369958510   -1.2612586009    1.1076593274
C        0.6971435439   -0.8791607608    1.4664859422
C        2.8121607792   -1.6869434980    2.2852665068
C       -0.0710073335   -1.9974568401    5.7200146088
C        0.7399446428   -3.1610605229    5.5002764639
C        1.4337644631   -1.4858795370    2.5025972791
C        0.0332006179   -1.2568449377    4.5782598119
C       -0.6284140867    0.0574184245    4.2958157052
C       -1.0906078421    2.4177559196    4.8943256536
C        0.6622380907    1.1277844522    6.1353280187
N        1.2854988760   -3.0930517733    4.3144125651
N        0.8466647000   -1.9444739466    3.7077947572
N       -0.3786957764    1.1631458176    5.1133927649
O       -1.4220966647    0.1793742016    3.3577346148
H        3.1704936142   -0.3044547913   -0.8048521514
H        0.7271606215    0.0165453952   -0.4923988040
H        4.5003203839   -1.4229430985    0.9705405356
H       -0.3758728105   -0.7728086592    1.5350996555
H        3.4054435449   -2.1778423159    3.0486880519
H       -0.6483135488   -1.7676196024    6.6069470098
H        0.8872039834   -3.9674678238    6.2093797640
H       -1.1673610196    2.9787381106    5.8310910410
H       -2.1112626387    2.2338879629    4.5429831598
H       -0.5632516392    3.0278821674    4.1546263478
H        1.4736438232    0.4484791275    5.8548759130
H        0.2434049199    0.8113057091    7.0954692124
H        1.1083332218    2.1203472758    6.2541063891
29   

C        2.6615060255   -0.4987741742    0.2657598406
C        1.3000555060   -0.2753652046    0.4736186484
C        3.3928511904   -1.2224547912    1.2076814396
C        0.6739652133   -0.7632289799    1.6266868522
C        2.7635935136   -1.7089011210    2.3591717942
C       -0.2096680216   -2.1292125937    5.7537304346
C        0.6672988914   -3.2475824587    5.5486954698
C        1.3953505461   -1.4738303842    2.6077276592
C       -0.0835061521   -1.3596964462    4.6353602116
C       -0.7724555528   -0.0572251584    4.3434924891
C       -1.0515937251    2.3744266293    4.7351569874
C        0.8004816437    1.1206423147    5.8672249049
N        1.2690201345   -3.1236242142    4.3940402006
N        0.8049128516   -1.9821670550    3.7929969639
N       -0.3626765246    1.1131876575    4.9858215137
O       -1.7060948214   -0.0077137179    3.5378058060
H        3.1451666366   -0.1223772290   -0.6287254290
H        0.7195754586    0.2663891985   -0.2649880060
H        4.4485585145   -1.4109833688    1.0476688553
H       -0.3918539170   -0.6126271081    1.7142142737
H        3.3486290604   -2.2712344259    3.0784625706
H       -0.8370859662   -1.9438098777    6.6167670899
H        0.8183278614   -4.0633553835    6.2462034863
H       -0.9871408942    3.0227112779    5.6147461123
H       -2.1147668196    2.2092230224    4.5321211775
H       -0.6010414708    2.8872959090    3.8798617107
H        1.5343412211    0.3642569640    5.5715127409
H        0.4947937354    0.9377193859    6.9019166444
H        1.3076688867    2.0891612613    5.8137459842
29   

C        2.5649624122   -0.2870960942    0.4779893579
C        1.2080056480   -0.0651032529    0.7158817984
C        3.2970409664   -1.0886784993    1.3541872419
C        0.5871119954   -0.6317856685    1.8351517480
C        2.6736248908   -1.6552440717    2.4715648814
C       -0.3609870568   -2.2752633211    5.8150112751
C        0.5590032608   -3.3561553985    5.5901295917
C        1.3111637939   -1.4241492362    2.7513049945
C       -0.2064912526   -1.4432217280    4.7471847257
C       -0.9112521340   -0.1459593094    4.4653310482
C       -1.0007244441    2.3324157298    4.5857655793
C        0.9521721694    1.0815888325    5.5482683998
N        1.2044237890   -3.1559669261    4.4692807373
N        0.7277699842   -1.9998659459    3.9088703224
N       -0.3346190491    1.0629927495    4.8598703181
O       -1.9747776908   -0.1378004425    3.8403775780
H        3.0452043431    0.1521390377   -0.3893267855
H        0.6281550751    0.5392539820    0.0270037259
H        4.3493663529   -1.2745074567    1.1701211544
H       -0.4758494219   -0.4693010837    1.9516601081
H        3.2597400978   -2.2750153260    3.1412137702
H       -1.0317363573   -2.1537088635    6.6566256460
H        0.7067623533   -4.2019160272    6.2517027297
H       -0.8324096634    3.0369271296    5.4061717142
H       -2.0835195812    2.2028752944    4.4899223178
H       -0.6141577881    2.7656619008    3.6580718853
H        1.0362703026    0.2507480420    6.2556919560
H        1.0687878721    2.0055473335    6.1230101068
H        1.7683612833    1.0170355995    4.8213285490
29   

C        2.5195859375   -0.1958248233    0.6064845969
C        1.1574622646   -0.0135026720    0.8502607441
C        3.2744950941   -0.9948430106    1.4659624976
C        0.5539008230   -0.6169273962    1.9597045275
C        2.6688407326   -1.5982458479    2.5737035807
C       -0.4553529880   -2.4056338184    5.8291920452
C        0.5166146202   -3.4436419020    5.6159507218
C        1.3023352894   -1.4062039635    2.8594287411
C       -0.2625598471   -1.5171608891    4.8148237542
C       -0.9730050314   -0.2187900299    4.5643216072
C       -0.9752334332    2.2685892863    4.5005695220
C        1.0298251060    1.0241930911    5.3459238051
N        1.2242567507   -3.1702057278    4.5489132314
N        0.7359187914   -2.0097754997    4.0101018349
N       -0.3191616733    0.9963552772    4.7886129939
O       -2.1226996172   -0.2166835826    4.1173351724
H        2.9868578997    0.2725829359   -0.2526585767
H        0.5615171228    0.5896215532    0.1741395884
H        4.3309627171   -1.1495050985    1.2766006783
H       -0.5129474862   -0.4820591757    2.0877664258
H        3.2709925919   -2.2149347332    3.2320417365
H       -1.1768934609   -2.3414321038    6.6344687106
H        0.6552165505   -4.3120759933    6.2495478678
H       -0.7831585289    2.9854879771    5.3048368388
H       -2.0611189288    2.1579067027    4.4203492526
H       -0.5970197838    2.6781168907    3.5587127331
H        1.1705226081    0.2274821107    6.0834007902
H        1.2140782026    1.9730360692    5.8592691081
H        1.7711835320    0.9101109365    4.5484663964
29   

C        2.4917608241   -0.1853969010    0.6537648839
C        1.1289359363   -0.0171037410    0.9048594076
C        3.2608141909   -0.9736803850    1.5110109887
C        0.5387559499   -0.6240150940    2.0195785021
C        2.6683888962   -1.5812435798    2.6236172932
C       -0.5426446607   -2.4975076855    5.7931796437
C        0.4584373565   -3.5110516416    5.5960543899
C        1.3018965706   -1.4029745740    2.9155844953
C       -0.3044776188   -1.5586529115    4.8350289968
C       -1.0105165632   -0.2511427580    4.6457890308
C       -0.9971424350    2.2271591515    4.4742335683
C        1.0716710108    1.0113981842    5.1795468639
N        1.2253947101   -3.1807411827    4.5877579149
N        0.7459152466   -2.0083626394    4.0691247716
N       -0.3217395121    0.9626143583    4.7465515719
O       -2.2195759183   -0.2362045782    4.3993686219
H        2.9490118227    0.2858936573   -0.2092245169
H        0.5230471949    0.5783624352    0.2307722085
H        4.3179016440   -1.1168208039    1.3159525740
H       -0.5281034878   -0.4986837660    2.1598067055
H        3.2796614652   -2.1901738388    3.2808973344
H       -1.3066941842   -2.4738508025    6.5608002600
H        0.5748941019   -4.4025657398    6.2014323741
H       -1.3368436217    2.6834539955    5.4089613139
H       -1.8601127225    2.0874895766    3.8153337166
H       -0.3134979919    2.9152064508    3.9668862772
H        1.3118893949    0.1788035894    5.8484151105
H        1.2615081324    1.9334270372    5.7380412042
H        1.7418247201    0.9821451318    4.3146280071
29   

C        0.8285945358   -1.7965529372    0.3697112205
C        0.0697890516   -2.2706502340    1.4415535527
C        1.8927762637   -0.9250808158    0.6069285601
C        0.3657717509   -1.8627627279    2.7475317837
C        2.1891166481   -0.5216124682    1.9135360822
C        1.6508278418   -0.1068240515    6.4780566950
C        2.9988993920   -0.0064767306    5.9880041278
C        1.4212317221   -0.9636253604    3.0081652725
C        0.8812775643   -0.3899416200    5.3891353612
C       -0.6118978269   -0.4657965447    5.3659277588
C       -2.8276942342    0.0782690105    4.4023257667
C       -0.7956631928    1.2890763608    3.5954813561
N        3.0132192009   -0.2201393496    4.6968205890
N        1.7330983056   -0.5135367663    4.3132439591
N       -1.3797433674    0.2516432382    4.4409104734
O       -1.1962928435   -1.1337085402    6.2242191178
H        0.5985715963   -2.1114002150   -0.6421956497
H       -0.7461389846   -2.9624856961    1.2635617421
H        2.4918139991   -0.5605036663   -0.2202811220
H       -0.2241079660   -2.2741529862    3.5577492588
H        3.0192607920    0.1556139111    2.0833143107
H        1.3115551894    0.0530310224    7.4946208944
H        3.8678861873    0.2336413003    6.5897110167
H       -3.3101602123    0.7602035515    5.1092136877
H       -3.1058947063   -0.9507259268    4.6528498360
H       -3.2058684195    0.2798040753    3.3950480990
H       -0.5722137976    0.8930679929    2.6000091610
H        0.1200277758    1.6965106460    4.0353444377
H       -1.4944550228    2.1248779753    3.4892668485
29   

C        0.8403557919   -1.7953382183    0.3554906292
C        0.0542602793   -2.2390946291    1.4210639460
C        1.9131773786   -0.9355371020    0.5972067134
C        0.3323051491   -1.8125309282    2.7252375183
C        2.1920738625   -0.5145911112    1.9020078634
C        1.6007787272   -0.1432502634    6.4680374153
C        2.9573603258   -0.0758726113    5.9978632462
C        1.3975542966   -0.9268763279    2.9888011577
C        0.8285750224   -0.3507885334    5.3626327906
C       -0.6643652449   -0.3104450103    5.3607007548
C       -2.8701293100    0.2229802969    4.3842612925
C       -0.8168303811    1.2629994169    3.4198822780
N        2.9788924628   -0.2352535136    4.6995900542
N        1.6935603540   -0.4650112989    4.2922380453
N       -1.4145244198    0.3164134391    4.3575070275
O       -1.2704062996   -0.7547579636    6.3405667141
H        0.6245239900   -2.1241687944   -0.6551147661
H       -0.7691565445   -2.9209208623    1.2391360230
H        2.5326961496   -0.5940300042   -0.2247950101
H       -0.2794525880   -2.1936261188    3.5341281966
H        3.0296089148    0.1521911416    2.0771214185
H        1.2554173864    0.0018867146    7.4850485577
H        3.8270516031    0.1076025221    6.6182019286
H       -3.2842138361    0.9505086751    5.0892795321
H       -3.1865970545   -0.7824516709    4.6812941265
H       -3.2824772105    0.4146894294    3.3885422615
H       -0.6564015950    0.7927376405    2.4449559447
H        0.1338644279    1.6539206928    3.7952245078
H       -1.4787588781    2.1241738246    3.2840579502
29   

C        0.8726205958   -1.7710408187    0.3557224331
C        0.0923763172   -2.2267276593    1.4209107547
C        1.9336758798   -0.8966972052    0.5981157135
C        0.3648869094   -1.7978673840    2.7256681386
C        2.2073160561   -0.4740199189    1.9034002817
C        1.6356216677   -0.2560155618    6.4841671253
C        2.9905023649   -0.1842098783    6.0114489541
C        1.4187005976   -0.8992300192    2.9891091518
C        0.8486586548   -0.3790486702    5.3747629033
C       -0.6385502552   -0.2458099821    5.4150934510
C       -2.8663125384    0.2413283119    4.4763737472
C       -0.8441106046    1.1833560932    3.3703984699
N        3.0021869345   -0.2591248305    4.7061106532
N        1.7112774910   -0.4421551600    4.2940416128
N       -1.4114329392    0.2891688906    4.3757827363
O       -1.2151247553   -0.4913273187    6.4788148774
H        0.6614709895   -2.1015578630   -0.6553351830
H       -0.7220708723   -2.9189045301    1.2378165179
H        2.5485350879   -0.5458546504   -0.2234852194
H       -0.2419896683   -2.1827677263    3.5365878120
H        3.0364377184    0.2026450058    2.0808866223
H        1.2999092928   -0.1509645569    7.5095640299
H        3.8661662048   -0.0535544370    6.6367363265
H       -3.2268729170    1.0287269755    5.1457571243
H       -3.1922047266   -0.7308030452    4.8612378926
H       -3.3217223814    0.3735723155    3.4897972756
H       -0.7366278547    0.6705797040    2.4099439601
H        0.1268352072    1.5772759130    3.6853466787
H       -1.4998923398    2.0479730173    3.2266290386
29   

C        0.9088703303   -1.7442752100    0.3592054750
C        0.1299043328   -2.2120182763    1.4203934313
C        1.9546560102   -0.8528811684    0.6067879660
C        0.3887181997   -1.7784344272    2.7265122719
C        2.2147045096   -0.4257413377    1.9133770750
C        1.6306093050   -0.3522691600    6.4976229152
C        2.9881991627   -0.2890694846    6.0329204153
C        1.4270083333   -0.8636032713    2.9942629413
C        0.8396798440   -0.3864030081    5.3829921666
C       -0.6360253400   -0.1487654662    5.4518281987
C       -2.8833158092    0.2753375214    4.5415578828
C       -0.8961311439    1.1201996344    3.3142006595
N        3.0022401233   -0.2829179940    4.7260955743
N        1.7089684218   -0.4093213094    4.3016038114
N       -1.4326200147    0.2812963614    4.3819817432
O       -1.1724074236   -0.1844767379    6.5623258979
H        0.7087823012   -2.0785507878   -0.6528740455
H       -0.6727096856   -2.9167093734    1.2329227137
H        2.5686961037   -0.4930188665   -0.2115393966
H       -0.2164708976   -2.1685067416    3.5364155348
H        3.0330306214    0.2623896929    2.0969545317
H        1.2980855650   -0.2809226766    7.5271146378
H        3.8645993984   -0.2170960380    6.6666246171
H       -3.2027867966    1.1299324896    5.1464955503
H       -3.2101106873   -0.6484941454    5.0305940592
H       -3.3752591774    0.3235016517    3.5649068580
H       -0.8295567061    0.5627204146    2.3754124410
H        0.0878364448    1.5211759286    3.5745681515
H       -1.5504267792    1.9828557274    3.1527555799
