19   

C        1.7711138615   -1.2069510559   -0.1181708795
C        0.7842301175   -0.4712798340    0.5254846108
C        2.7795403536   -1.8158293008    0.6307510177
C        0.8172340184   -0.3433786073    1.9130562310
C        2.8280617124   -1.7222434619    2.0404848157
C        1.8262642399   -0.9506732063    2.6864757229
C        3.9374114945   -2.3782579180    2.7466363214
C        1.8015788011   -0.7345175943    4.1812770264
N        4.1098421976   -2.5690173227    4.0970086424
N        5.0301618460   -2.8515689983    2.1031537344
N        5.3147688061   -3.1861158674    4.2152984533
N        5.8479628139   -3.3489001799    3.0629586620
H        1.7619598593   -1.3090963426   -1.1966292087
H       -0.0023694658    0.0043152836   -0.0478767935
H        3.5414604194   -2.3836369722    0.1093344756
H        0.0457565623    0.2424284487    2.3976545028
H        1.6379852038   -1.6858902768    4.6963739899
H        2.7483917572   -0.2994719710    4.5155742691
H        0.9980818678   -0.0502242678    4.4674566567
19   

C        1.7716383059   -1.2093175283   -0.1320994130
C        0.7885591600   -0.4651345408    0.5097997579
C        2.7719431917   -1.8279288372    0.6201347725
C        0.8212195473   -0.3326521740    1.8978063184
C        2.8048605819   -1.7452875433    2.0284876693
C        1.8220583411   -0.9504426122    2.6730367226
C        3.9194818294   -2.3869559898    2.7407815494
C        1.8193033927   -0.7153708021    4.1650100199
N        4.0014781602   -2.7253635251    4.0703357032
N        5.1183903895   -2.6198858990    2.1598426355
N        5.2621205054   -3.2068885822    4.2315706242
N        5.9088893794   -3.1446147926    3.1281279017
H        1.7664655681   -1.3083485950   -1.2108586948
H        0.0082838664    0.0180886785   -0.0658103591
H        3.5392500374   -2.3990333192    0.1099495351
H        0.0592330247    0.2669312516    2.3805713774
H        1.5939054494   -1.6475329899    4.6916828362
H        2.7958017062   -0.3440006158    4.4909716842
H        1.0668283464    0.0270350901    4.4449763460
19   

C        1.7827299008   -1.1987303128   -0.1411512646
C        0.8066710831   -0.4449246265    0.5029181798
C        2.7727289514   -1.8345119064    0.6110760809
C        0.8396174358   -0.3150109016    1.8921202722
C        2.7904109276   -1.7678567995    2.0176848014
C        1.8298562457   -0.9513841609    2.6651502867
C        3.9059646115   -2.4037067755    2.7384499902
C        1.8489979849   -0.7142266495    4.1564697214
N        3.8986106380   -2.9032502459    4.0183818349
N        5.1751592333   -2.4030973753    2.2762030273
N        5.1881657661   -3.2601293171    4.2576562049
N        5.9268436893   -2.9693699270    3.2522436102
H        1.7806790951   -1.2895692508   -1.2206214060
H        0.0344579267    0.0515260195   -0.0722996921
H        3.5438176720   -2.4082052515    0.1094662893
H        0.0893598263    0.2976796771    2.3767943002
H        1.5764520632   -1.6321666624    4.6857280918
H        2.8473284174   -0.3995353011    4.4763983756
H        1.1410550782    0.0699825486    4.4385731034
19   

C        2.1041072508   -0.5911572429   -0.0905211525
C        0.9125334464   -0.2325775272    0.5345947750
C        3.0903527749   -1.2630231491    0.6356668382
C        0.7247544625   -0.5265805775    1.8868501005
C        2.8906584990   -1.6312339081    1.9777833104
C        1.7084956498   -1.2058518280    2.6301188222
C        4.0016554027   -2.2597225452    2.7199436545
C        1.4871576433   -1.4368653279    4.1057678194
N        3.8984540420   -3.2683819523    3.6459653478
N        5.2484913278   -1.7466455279    2.7605333720
N        5.1507082452   -3.3873480740    4.1616797056
N        5.9305916208   -2.5069808312    3.6524719277
H        2.2708805679   -0.3457353272   -1.1323611191
H        0.1419268310    0.2882111137   -0.0209099084
H        4.0299141272   -1.5255564507    0.1631676065
H       -0.1937274122   -0.2141172811    2.3684321972
H        1.3416338945   -2.5035377478    4.3004778523
H        2.3534415299   -1.0871134050    4.6763672653
H        0.6049913853   -0.8963285056    4.4597461916
19   

C        2.0941630364   -0.6018179811   -0.1064444438
C        0.9107094164   -0.2301208566    0.5293473105
C        3.0867516710   -1.2704229892    0.6151597330
C        0.7346539099   -0.5098275857    1.8871113026
C        2.8974648847   -1.6165616502    1.9627401206
C        1.7241320840   -1.1859711032    2.6243539574
C        4.0014419009   -2.2501989891    2.7188404210
C        1.5263034808   -1.4219030841    4.1022064576
N        3.9130582693   -3.4176124392    3.4335290496
N        5.1577401764   -1.6256035124    3.0155042546
N        5.1029874696   -3.5018091937    4.0864891057
N        5.8212073384   -2.4665690284    3.8474560979
H        2.2485796825   -0.3695179513   -1.1531734114
H        0.1361302486    0.2877984619   -0.0233042463
H        4.0196781742   -1.5457588362    0.1374231648
H       -0.1778884486   -0.1914830097    2.3760532427
H        1.4138608763   -2.4923377518    4.2984836671
H        2.3914815807   -1.0513187376    4.6613329386
H        0.6343055300   -0.9048838337    4.4664815899
19   

C        2.0184611160   -0.7832833904   -0.1505861280
C        0.8611772987   -0.3521895831    0.4985923041
C        3.0358834412   -1.4004223906    0.5831156184
C        0.7249023897   -0.5392924120    1.8775731618
C        2.9114550334   -1.5936233301    1.9668733952
C        1.7406401997   -1.1585090924    2.6278390218
C        4.0006464738   -2.2497473894    2.7296371082
C        1.5776329626   -1.3531139686    4.1149403176
N        4.1220346741   -3.5937772144    2.9569887178
N        5.0230584174   -1.5822189202    3.2959847654
N        5.2623635033   -3.6963344123    3.6926487381
N        5.7824811631   -2.5383172456    3.8875059002
H        2.1308837785   -0.6413852235   -1.2186167592
H        0.0693687295    0.1268576950   -0.0646098168
H        3.9406947631   -1.7401050493    0.0929208119
H       -0.1784278809   -0.2001464481    2.3695923627
H        1.6288150367   -2.4187332689    4.3595525555
H        2.3793392596   -0.8337412634    4.6492816272
H        0.6168727114   -0.9611666234    4.4600173413
19   

C        1.9338864218   -0.9706806460   -0.1623854419
C        0.8048085482   -0.4736054080    0.4866777749
C        2.9718823925   -1.5323493027    0.5863047495
C        0.7107780169   -0.5588702473    1.8781656499
C        2.9214957066   -1.5676318704    1.9894390053
C        1.7504629420   -1.1195608555    2.6421232130
C        3.9981609506   -2.2489430616    2.7439291312
C        1.6069574488   -1.2385790945    4.1393786079
N        4.4701848529   -3.5061570203    2.4692151759
N        4.8598830434   -1.6116876866    3.5592653039
N        5.5722524872   -3.6286977700    3.2567100661
N        5.8004266844   -2.5333498044    3.8835292558
H        2.0077369306   -0.9273837646   -1.2422555479
H       -0.0027343825   -0.0348697241   -0.0869160623
H        3.8470113930   -1.9392778171    0.0925603157
H       -0.1818410675   -0.1911261380    2.3691913342
H        1.7261496905   -2.2829984299    4.4443868207
H        2.3744175333   -0.6383263648    4.6375257128
H        0.6238301617   -0.8910749447    4.4688712102
19   

C        1.9355745518   -0.9867950074   -0.1506927720
C        0.8130635204   -0.4621831753    0.4851738137
C        2.9587869582   -1.5576165546    0.6105440199
C        0.7110596277   -0.5305363203    1.8760776563
C        2.9062723215   -1.5765858363    2.0161713816
C        1.7362815276   -1.0996010505    2.6540212287
C        3.9688229597   -2.2750414679    2.7657164490
C        1.5628088807   -1.2068765728    4.1495917540
N        4.6175316387   -3.4037878299    2.3321395856
N        4.6573535591   -1.7310448502    3.7899223344
N        5.6367393577   -3.5688845142    3.2170822435
N        5.6624304144   -2.6011191112    4.0575441553
H        2.0161371341   -0.9585239801   -1.2305971681
H        0.0161585966   -0.0164827485   -0.0978562696
H        3.8265420526   -1.9841092910    0.1200696690
H       -0.1787928845   -0.1431729276    2.3569625544
H        1.7422384860   -2.2358531609    4.4767453127
H        2.2735353493   -0.5472689930    4.6564662317
H        0.5500306505   -0.9228459138    4.4487017764
19   

C        1.9323489495   -0.9852566850   -0.1430102543
C        0.8205148713   -0.4458306076    0.4964729305
C        2.9499807268   -1.5699731021    0.6141915326
C        0.7248044484   -0.5115149080    1.8871568453
C        2.9027742339   -1.5971760763    2.0219132325
C        1.7436361935   -1.0946941457    2.6641849726
C        3.9744814546   -2.2924191061    2.7533898635
C        1.5539025850   -1.1961931048    4.1589011690
N        4.7611894947   -3.2879585656    2.2283888169
N        4.5039126765   -1.8806023832    3.9255309946
N        5.7068923921   -3.5119061388    3.1794131690
N        5.5604309257   -2.6979024692    4.1587208361
H        2.0100691679   -0.9566590330   -1.2231322914
H        0.0273020012    0.0106525375   -0.0832519838
H        3.8096225182   -2.0009076095    0.1134982966
H       -0.1577294578   -0.1100162694    2.3699712485
H        1.7556919036   -2.2171308390    4.4978500779
H        2.2364330794   -0.5105791862    4.6699580206
H        0.5292061506   -0.9404455832    4.4425092786
19   

C        1.9403988607   -0.9688288010   -0.1414604702
C        0.8347645215   -0.4213228417    0.4990760430
C        2.9506548188   -1.5674359592    0.6137061262
C        0.7400924101   -0.4893852430    1.8889277700
C        2.8998683855   -1.6129742853    2.0227449082
C        1.7500598044   -1.0878931681    2.6673893615
C        3.9847233421   -2.2993167802    2.7395063757
C        1.5429087122   -1.1767112565    4.1613213946
N        4.8892986155   -3.1541527675    2.1573340318
N        4.3631397251   -2.0580804643    4.0145574999
N        5.7646598716   -3.4571066534    3.1526375416
N        5.4624360497   -2.8233831373    4.2247906514
H        2.0202735656   -0.9343671871   -1.2212699751
H        0.0465605814    0.0460773449   -0.0787956934
H        3.8061119816   -1.9969366376    0.1049082487
H       -0.1372881723   -0.0757626400    2.3709275682
H        1.6989265775   -2.2038312862    4.5053688102
H        2.2437624115   -0.5136778114    4.6774159115
H        0.5262851520   -0.8814602967    4.4353386623
19   

C        1.9468872854   -0.9588887272   -0.1317856221
C        0.8420586645   -0.4122579544    0.5086013795
C        2.9535723021   -1.5632893097    0.6226227944
C        0.7480176196   -0.4816069329    1.8978306107
C        2.8958956685   -1.6285105727    2.0320643820
C        1.7533187832   -1.0870386955    2.6784127058
C        3.9953571539   -2.2994207211    2.7397823891
C        1.5411922453   -1.1481544000    4.1736774016
N        5.0062213459   -3.0021253599    2.1282101222
N        4.2340750000   -2.2555283306    4.0704810047
N        5.8183768276   -3.3946416130    3.1454091926
N        5.3736406241   -2.9632552076    4.2669705933
H        2.0298376040   -0.9182866681   -1.2111598620
H        0.0558942198    0.0596322989   -0.0684150458
H        3.8087257805   -1.9866471619    0.1084300412
H       -0.1264132948   -0.0599702300    2.3782434826
H        1.6149877954   -2.1819230686    4.5248642421
H        2.2892491420   -0.5353246800    4.6856258253
H        0.5512011938   -0.7728053545    4.4470491130
19   

C        1.9490611386   -0.9392379066   -0.1206449195
C        0.8401400729   -0.4037212761    0.5211317697
C        2.9563301031   -1.5452237456    0.6313388148
C        0.7468483137   -0.4782201416    1.9099011412
C        2.8896277786   -1.6356760368    2.0395685775
C        1.7523652063   -1.0857150915    2.6891941157
C        4.0006950205   -2.2926900077    2.7421174567
C        1.5537886416   -1.1137757926    4.1875483760
N        5.1070269423   -2.8291781616    2.1268053303
N        4.1128394592   -2.4722962588    4.0784265762
N        5.8625837426   -3.3241630999    3.1428343915
N        5.2891798190   -3.1184621085    4.2699206651
H        2.0350199992   -0.8885879411   -1.1993634492
H        0.0529145568    0.0687552351   -0.0539598287
H        3.8146591553   -1.9578572812    0.1138332689
H       -0.1260307101   -0.0545768174    2.3913614927
H        1.5254250996   -2.1473183226    4.5457420887
H        2.3655853676   -0.5758819387    4.6865203401
H        0.6119202818   -0.6355309949    4.4700807145
19   

C        1.9652723534   -0.9248848940   -0.1289483456
C        0.8493467232   -0.3989556317    0.5095316418
C        2.9707328270   -1.5315096124    0.6253075418
C        0.7511575101   -0.4759412085    1.8980722156
C        2.8879203361   -1.6436113369    2.0305377487
C        1.7547527206   -1.0844898192    2.6784273693
C        4.0035603975   -2.2841938382    2.7410324163
C        1.5759839943   -1.0830183396    4.1792922517
N        5.1938933098   -2.6513457075    2.1596906250
N        4.0017280163   -2.6898776219    4.0314136977
N        5.8960650367   -3.2493263943    3.1585590204
N        5.2080697751   -3.2726621006    4.2392580808
H        2.0580517831   -0.8659887343   -1.2066778701
H        0.0633285838    0.0731594814   -0.0675004568
H        3.8360621624   -1.9358908226    0.1128674450
H       -0.1210018814   -0.0500110819    2.3788268756
H        1.4488385104   -2.1065892109    4.5445022229
H        2.4455610742   -0.6287391146    4.6639783489
H        0.6931052344   -0.5073508597    4.4705540093
19   

C        1.9537537111   -0.9105562314   -0.1046216739
C        0.8420960277   -0.3808643165    0.5404283148
C        2.9589234834   -1.5263327493    0.6434964288
C        0.7504423546   -0.4576067303    1.9300195378
C        2.8717613131   -1.6541421603    2.0457227526
C        1.7538471665   -1.0763453883    2.7011190506
C        3.9940132613   -2.2776808864    2.7619233294
C        1.6096620225   -1.0635772760    4.2049964100
N        5.2444928059   -2.4810928213    2.2299564494
N        3.9187161950   -2.8978611801    3.9607069138
N        5.9149765565   -3.1779733132    3.1856871481
N        5.1496475491   -3.4203288967    4.1846318483
H        2.0437850344   -0.8461504040   -1.1822590363
H        0.0568087367    0.0978636697   -0.0321179045
H        3.8248518958   -1.9309621643    0.1320344998
H       -0.1126747886   -0.0224012133    2.4187183544
H        1.4169305890   -2.0761109233    4.5721314744
H        2.5228253865   -0.6795466084    4.6701221257
H        0.7795505404   -0.4227170230    4.5148221017
19   

C        1.9626916160   -0.8940725594   -0.1078303041
C        0.8538212622   -0.3562747115    0.5381317415
C        2.9609815735   -1.5232474805    0.6394228606
C        0.7597028758   -0.4344834358    1.9282701867
C        2.8608232298   -1.6648955661    2.0374840594
C        1.7560233698   -1.0682433815    2.6948031379
C        3.9825596008   -2.2750299477    2.7698264874
C        1.6321647592   -1.0636085746    4.1998310393
N        5.2805780898   -2.3115208208    2.3232212519
N        3.8556228128   -3.0999417212    3.8315526837
N        5.9268541296   -3.1043177298    3.2191875371
N        5.1041372386   -3.5619480583    4.0891349194
H        2.0562469749   -0.8239277916   -1.1847927819
H        0.0743798513    0.1323081241   -0.0340599844
H        3.8302431227   -1.9306197841    0.1356229360
H       -0.0966796792    0.0103479471    2.4201152601
H        1.4082179355   -2.0722696077    4.5597572719
H        2.5669775401   -0.7227917514    4.6557777236
H        0.8314773915   -0.3937528561    4.5254645297
19   

C        1.9727719626   -0.8870422458   -0.1063114784
C        0.8727853967   -0.3298572700    0.5411104085
C        2.9606845687   -1.5343057219    0.6402620466
C        0.7780293905   -0.4048430899    1.9321829615
C        2.8512657270   -1.6791376454    2.0352382057
C        1.7644236525   -1.0571433436    2.6948285437
C        3.9675159454   -2.2887608050    2.7842942818
C        1.6553611573   -1.0665743793    4.2002657772
N        5.2931729710   -2.1548258042    2.4562992437
N        3.8267416922   -3.2988994247    3.6668802680
N        5.9335477156   -3.0359008345    3.2704206869
N        5.0868179008   -3.6995862575    3.9676802164
H        2.0676676114   -0.8165812028   -1.1831180662
H        0.1017525182    0.1722320701   -0.0307679706
H        3.8283032837   -1.9539298637    0.1436607813
H       -0.0686930962    0.0555548794    2.4263836577
H        1.4648541087   -2.0840276878    4.5547138531
H        2.5870772674   -0.7064096181    4.6477120308
H        0.8397915212   -0.4215240772    4.5388187352
19   

C        1.9584643580   -0.8971817761   -0.1184573647
C        0.8754533593   -0.3224666179    0.5448475797
C        2.9484430812   -1.5573362033    0.6147427817
C        0.7983595021   -0.3933718012    1.9381815898
C        2.8533038840   -1.6931356259    2.0094025463
C        1.7874170653   -1.0575900166    2.6861989474
C        3.9635459484   -2.3212377786    2.7613959464
C        1.7035991649   -1.0840342012    4.1924554372
N        5.2867926434   -1.9918821796    2.6220971281
N        3.8569347220   -3.4949659592    3.4128803299
N        5.9454727993   -2.9487190844    3.3294312100
N        5.1205755569   -3.8196614256    3.7830360070
H        2.0377488563   -0.8304755608   -1.1967486169
H        0.1031911769    0.1889188705   -0.0170427429
H        3.8051817407   -1.9923523157    0.1127616515
H       -0.0353980273    0.0777659171    2.4441344134
H        1.5974021152   -2.1151690893    4.5430715638
H        2.6147656130   -0.6588841573    4.6249727541
H        0.8474200149   -0.5044673034    4.5487182856
19   

C        1.8489498090   -1.0708514508   -0.1390993842
C        0.8051108518   -0.4368785783    0.5354706884
C        2.8745541865   -1.6818237353    0.5883502449
C        0.7900300406   -0.4157219621    1.9334946380
C        2.8707783298   -1.6678791825    1.9909939390
C        1.8153108104   -1.0264682970    2.6776962954
C        3.9666648118   -2.3211818288    2.7465600194
C        1.7841942898   -0.9942643800    4.1856406987
N        5.1330850510   -1.7246002922    3.1420314585
N        3.9413501959   -3.6094885617    3.1355332295
N        5.8002147076   -2.7165953904    3.7923723024
N        5.1149585748   -3.8028252814    3.7882247325
H        1.8669646161   -1.0912875024   -1.2220216964
H        0.0074247117    0.0381915203   -0.0227856550
H        3.6916674930   -2.1784704984    0.0784216660
H       -0.0259278187    0.0797617132    2.4451755464
H        1.7623312854   -2.0149454795    4.5802738375
H        2.6790646906   -0.4921735332    4.5665729525
H        0.9021635467   -0.4601257886    4.5496173733
19   

C        1.7371983143   -1.2385000868   -0.1253296942
C        0.7290774797   -0.5485951107    0.5460059798
C        2.7925979584   -1.7991436656    0.5990944676
C        0.7702600677   -0.4409695663    1.9386604878
C        2.8822410815   -1.6431000673    1.9916497692
C        1.8291141332   -0.9971011061    2.6798095479
C        3.9681802901   -2.3195676378    2.7367815640
C        1.8137161079   -0.9119721349    4.1869128171
N        4.8384130291   -1.7132130827    3.6065266357
N        4.0708075598   -3.6576991052    2.8548130915
N        5.5232112541   -2.7447255560    4.1690377752
N        5.0791299628   -3.8677071033    3.7372774265
H        1.7019884714   -1.3459629784   -1.2026695018
H       -0.0920398012   -0.1104672435   -0.0084733000
H        3.5710628520   -2.3558308585    0.0906805018
H       -0.0333133947    0.0739828691    2.4507490308
H        1.9481354043   -1.9078533936    4.6212414677
H        2.6254418451   -0.2654500391    4.5334804272
H        0.8651732733   -0.5047093663    4.5475649958
19   

C        1.7278667310   -1.2482678461   -0.1155305129
C        0.7278397025   -0.5420624888    0.5480848167
C        2.7810076614   -1.8050386998    0.6141244643
C        0.7746590185   -0.4177752900    1.9382511612
C        2.8835714748   -1.6292174262    2.0052937515
C        1.8315385312   -0.9706701225    2.6858215172
C        3.9687841710   -2.3149232206    2.7343806191
C        1.7985308985   -0.8703777550    4.1920763706
N        4.6847625839   -1.8120134526    3.7927424958
N        4.2317044670   -3.6320631096    2.6076443522
N        5.4420038249   -2.8571781752    4.2198876826
N        5.1790853980   -3.9095715650    3.5373526818
H        1.6883716720   -1.3725789669   -1.1909184912
H       -0.0924160851   -0.1064298969   -0.0096326649
H        3.5513368809   -2.3756666616    0.1082317997
H       -0.0260592807    0.1070430128    2.4447979097
H        1.9582651361   -1.8565016835    4.6397479941
H        2.5834309003   -0.1920606709    4.5395526000
H        0.8333364727   -0.4912928033    4.5390694971
19   

C        1.7368033051   -1.2397384779   -0.1072501078
C        0.7429565817   -0.5193713243    0.5478084903
C        2.7777834559   -1.8081066538    0.6299570118
C        0.7855833172   -0.3902008235    1.9368246483
C        2.8746337864   -1.6393703907    2.0247449221
C        1.8294205531   -0.9554532675    2.6944537541
C        3.9599924878   -2.3277345958    2.7434725150
C        1.7793384138   -0.8372919020    4.1991663217
N        4.5541149415   -1.9498217012    3.9232959743
N        4.3910727088   -3.5643991358    2.4127319845
N        5.3971300494   -2.9714579335    4.2285532327
N        5.3018318545   -3.9058107341    3.3573552371
H        1.7033127474   -1.3654136915   -1.1827014940
H       -0.0682520881   -0.0745201523   -0.0158390790
H        3.5436647557   -2.3840141431    0.1229351901
H       -0.0100407202    0.1499110801    2.4352682068
H        1.9034985959   -1.8223033830    4.6600192517
H        2.5763874811   -0.1750469396    4.5500972610
H        0.8204277043   -0.4283381176    4.5293145984
19   

C        1.7439970914   -1.2294536750   -0.1056670462
C        0.7564821924   -0.4983430442    0.5443809217
C        2.7732079179   -1.8127693298    0.6357061257
C        0.7970524434   -0.3681450602    1.9323823297
C        2.8618877488   -1.6617753798    2.0359765664
C        1.8281938520   -0.9488275322    2.6964931493
C        3.9514987207   -2.3480409588    2.7456013570
C        1.7725306488   -0.8074446581    4.1992011604
N        4.4372391086   -2.1017806715    4.0074769838
N        4.5575342931   -3.4537549456    2.2563246309
N        5.3754652591   -3.0629527075    4.2147943443
N        5.4443173214   -3.8458451930    3.2037870598
H        1.7165472653   -1.3506403016   -1.1818247903
H       -0.0457651040   -0.0419139287   -0.0228351095
H        3.5340156124   -2.3882894662    0.1207735532
H        0.0091468042    0.1881092097    2.4253041879
H        1.8349833758   -1.7915457258    4.6739323018
H        2.6017380275   -0.1851736207    4.5489174643
H        0.8360869505   -0.3400695553    4.5160575065
19   

C        1.7525356264   -1.2356073740   -0.1154539345
C        0.7706566067   -0.4919849037    0.5266839195
C        2.7695443938   -1.8312109819    0.6325580169
C        0.8085742796   -0.3556552889    1.9132982577
C        2.8473026993   -1.6936119805    2.0374209285
C        1.8268858853   -0.9486340175    2.6856255524
C        3.9413727971   -2.3720542649    2.7462663155
C        1.7732373133   -0.7743503456    4.1851063813
N        4.3217025586   -2.2562749873    4.0621186893
N        4.7209919248   -3.3071917447    2.1543707971
N        5.3548906334   -3.1267835524    4.2086365510
N        5.5856522621   -3.7354985672    3.1063628201
H        1.7318086235   -1.3557713813   -1.1918926568
H       -0.0221086848   -0.0259908926   -0.0460686199
H        3.5248126431   -2.4090838121    0.1125281253
H        0.0292807572    0.2190021865    2.3987409344
H        1.7627649968   -1.7509916460    4.6785989674
H        2.6413889320   -0.2039654667    4.5288693759
H        0.8708907443   -0.2356750968    4.4873729590
19   

C        1.7689935223   -1.2234384316   -0.1251550350
C        0.7811820382   -0.4865579623    0.5147013535
C        2.7815406959   -1.8227712383    0.6258001573
C        0.8131231552   -0.3543194741    1.9014727923
C        2.8426805552   -1.7077621576    2.0346118930
C        1.8264778898   -0.9514359991    2.6772974018
C        3.9456562309   -2.3727523235    2.7424947441
C        1.7803620911   -0.7543727520    4.1742553884
N        4.2170592038   -2.4062504416    4.0896779360
N        4.8977458642   -3.0862967864    2.0958680308
N        5.3456832521   -3.1542598647    4.2048861763
N        5.7398653071   -3.5478325349    3.0524423061
H        1.7570916825   -1.3348885310   -1.2026708165
H       -0.0083716045   -0.0180562570   -0.0604426122
H        3.5406425430   -2.3925147254    0.1026127998
H        0.0347185806    0.2239439174    2.3840473855
H        1.6934639685   -1.7212340169    4.6791693826
H        2.6876151671   -0.2468268595    4.5157177320
H        0.9217272098   -0.1431117878    4.4655762943
