22

C     -1.69394    0.63126   -1.52413
C     -0.42859    0.09388   -1.11301
C     -1.94006    0.38572   -2.84207
C      0.26079   -0.53473   -2.12497
C     -1.32176   -4.64081    0.81101
C     -0.94792   -2.28289    1.03817
C     -1.72734   -6.07864    0.89170
N     -0.53035   -4.15142   -0.09437
N     -0.31744   -2.79803    0.02367
N     -0.88121   -0.94541    1.39632
O     -0.48103    1.47135    1.12148
O      1.47081   -0.13078    0.71708
S     -0.64043   -0.49009   -3.61692
S     -1.89265   -3.43199    1.97160
S      0.07306    0.23013    0.58345
Cl    -3.32833    0.86799   -3.74991
Cl     1.78195   -1.31248   -2.10599
H     -2.35384    1.18827   -0.86989
H     -1.41429   -6.52727    1.83976
H     -2.81298   -6.19058    0.80681
H     -1.25035   -6.61749    0.07092
H     -1.65885   -0.52719    1.89727
