40

C     -0.02422   -4.11616    1.50536
C      1.19805   -4.79963    1.50439
C     -0.63149   -3.78754    0.29356
C      1.79123   -5.14654    0.29123
C      4.44901   -8.80864   -6.57491
C      3.91371   -8.00270   -5.57264
C      2.34998   -6.91269   -7.11923
C     -0.04428   -4.13771   -0.93151
C      1.17700   -4.82637   -0.92784
C      3.92929   -8.66795   -7.86446
C      2.87978   -7.06511   -5.82618
C      2.90822   -7.73446   -8.08786
C      3.43003   -8.76697   -9.94028
C      1.46532   -5.32601   -4.68284
C     -0.68651   -3.76610   -2.24783
C      1.85969   -5.27086   -2.21023
C      0.37412   -3.60941   -3.33293
C      3.30264   -9.05577  -11.39341
N      4.23228   -9.30586   -9.07555
N      1.17639   -4.83000   -3.42122
N      2.43006   -6.32387   -4.71201
O      0.89821   -4.91516   -5.69744
O      2.58378   -7.79537   -9.42641
H     -0.49380   -3.83587    2.44461
H      1.68508   -5.05538    2.44162
H     -1.57477   -3.24512    0.29057
H      2.74357   -5.67464    0.28923
H      5.24064   -9.52017   -6.36119
H      4.30008   -8.09507   -4.55933
H      1.56741   -6.19698   -7.32597
H     -1.39833   -4.54179   -2.55665
H     -1.25015   -2.83290   -2.14260
H      2.90509   -4.91981   -2.19204
H      1.88112   -6.36755   -2.19367
H     -0.07265   -3.44477   -4.31151
H      1.02303   -2.75223   -3.10104
H      2.29264   -9.40571  -11.63082
H      3.48876   -8.15333  -11.98473
H      4.02523   -9.82433  -11.66878
H      2.92044   -6.53239   -3.85561
