42

C      5.48917   11.24992   -5.73492
C      6.01262    9.93442   -5.73602
C      9.48100    1.33862   -5.79335
C      9.79077    2.34039   -6.72016
C      4.59476   11.61685   -4.75379
C      5.64255    9.01613   -4.77289
C      3.27311   11.08574   -2.74535
C      8.58329    1.57862   -4.74508
C      2.87316   10.20766   -1.76424
C      9.20421    3.60967   -6.61465
C      4.19414   10.69456   -3.74858
C      4.72017    9.35901   -3.74255
C      4.30165    8.43673   -2.71400
C      8.00020    2.84441   -4.64247
C      3.38364    8.88752   -1.74590
C      8.31175    3.85360   -5.57521
C      6.67245    4.57416   -3.80677
C      4.74831    7.05236   -2.57830
C      6.61737    2.40362   -2.60191
C      2.07958    8.39248    0.21986
N      5.83223    5.13813   -3.00067
N      5.58625    6.45447   -3.36367
N      7.09157    3.26591   -3.67502
O      3.00598    7.98817   -0.78288
S      7.44186    5.35273   -5.21857
H      5.79149   11.95957   -6.50066
H      6.71903    9.63921   -6.50814
H      9.94097    0.35855   -5.88388
H     10.48897    2.13744   -7.52698
H      4.17886   12.62181   -4.73204
H      6.05277    8.01757   -4.79054
H      2.87899   12.09927   -2.75648
H      8.34811    0.79656   -4.03008
H      2.16771   10.53475   -1.01014
H      9.44251    4.38985   -7.33235
H      4.33150    6.49260   -1.74166
H      7.45759    2.07140   -1.98280
H      6.10724    1.52769   -3.01674
H      5.92003    2.97418   -1.99121
H      1.93987    7.51870    0.85778
H      1.11493    8.67959   -0.21534
H      2.47362    9.21974    0.82215
