35

C      7.75120   -1.33941    3.89294
C      6.93032   -7.83570    4.87633
C      0.58820   -1.76390    0.82525
C      6.32376   -7.10914    3.84371
C      7.81179   -7.19466    5.75306
C      0.65713   -0.43899    0.38411
C      1.62839   -2.28072    1.59269
C      6.57294   -5.74679    3.70017
C      8.07941   -5.83531    5.59782
C      1.75922    0.34893    0.72130
C      2.74372   -1.49035    1.92819
C      7.44383   -5.08351    4.58804
C      2.82121   -0.14588    1.49382
C      3.79732   -2.11601    2.74519
C      5.67932   -2.58454    3.57048
C      7.78960   -3.66849    4.48047
C      7.08396   -2.61093    3.98775
C      3.96976    0.77620    1.83428
N      8.30987   -0.31895    3.82851
N      5.12783   -1.73150    2.75107
N      3.54491   -3.14644    3.53509
O      4.79787   -3.46143    4.09131
H      6.72717   -8.89749    4.98703
H     -0.26374   -2.38815    0.57032
H      5.65710   -7.60886    3.14646
H      8.29674   -7.75470    6.54771
H     -0.14415   -0.01913   -0.21868
H      1.59365   -3.30928    1.93803
H      6.11151   -5.20628    2.88201
H      8.77467   -5.34123    6.27249
H      1.79950    1.38096    0.38163
H      8.78394   -3.41817    4.84518
H      4.19228    0.77279    2.90470
H      4.89060    0.47377    1.32962
H      3.72928    1.80018    1.53687
