40

C      0.33857   -0.96440   -0.51193
C     -0.76257   -1.22860   -1.33497
C      1.49048   -1.74251   -0.63064
C     -0.69466   -2.26666   -2.26457
C      6.98537   -4.46089   -6.81851
C      6.01093   -4.68660   -5.84880
C      4.29149   -3.48959   -7.12799
C      1.56615   -2.78826   -1.56220
C      0.46067   -3.04960   -2.38973
C      6.61138   -3.74019   -7.95587
C      4.68064   -4.21446   -5.98819
C      5.29090   -3.28458   -8.06821
C      6.46067   -2.70141   -9.81770
C      2.45328   -4.21865   -4.82160
C      2.83367   -3.61572   -1.67894
C      0.48395   -4.18235   -3.40471
C      2.55441   -4.93235   -2.40774
C      6.65656   -2.05210  -11.14105
N      7.32485   -3.34536   -9.09630
N      1.83560   -4.68234   -3.65942
N      3.80500   -4.50747   -4.92031
O      1.82972   -3.63215   -5.70647
O      5.19001   -2.61401   -9.26846
H      0.29834   -0.15790    0.21561
H     -1.66369   -0.62604   -1.25572
H      2.34691   -1.54021    0.01007
H     -1.54608   -2.46843   -2.91194
H      7.99813   -4.83172   -6.69442
H      6.27780   -5.24432   -4.95310
H      3.28028   -3.12863   -7.24797
H      3.59513   -3.05159   -2.23288
H      3.24722   -3.81620   -0.68376
H     -0.12740   -5.01858   -3.04020
H      0.06450   -3.85171   -4.35375
H      3.46864   -5.50852   -2.56996
H      1.91007   -5.57104   -1.79375
H      5.97595   -2.47842  -11.88517
H      6.45014   -0.97856  -11.07908
H      7.68684   -2.20381  -11.46372
H      4.21654   -5.07271   -4.19368
