22

C      2.46031    0.04143    1.02795
C      1.06887    0.29867    1.25414
C      3.19690    0.25217    2.15704
C      0.78368    0.70323    2.53693
C     -0.00162   -4.61089    1.13045
C     -0.84155   -2.40782    0.72629
C      0.76396   -5.85566    1.45118
N     -1.17458   -4.60076    0.56759
N     -1.65880   -3.33903    0.32374
N     -1.17734   -1.05199    0.68163
O      0.60552   -0.50010   -1.17047
O     -0.95685    1.27582   -0.20931
S      2.22216    0.77008    3.51496
S      0.63183   -2.99851    1.46509
S     -0.12372    0.09011   -0.05167
Cl     4.90129    0.05657    2.34140
Cl    -0.73895    1.10225    3.21764
H      2.85842   -0.29155    0.07728
H      1.70168   -5.89688    0.88774
H      1.00691   -5.91198    2.51680
H      0.15127   -6.71742    1.18023
H     -2.13346   -0.89897    0.35533
