45

C     -1.18213    2.75072    1.80618
C     -0.75577    1.51183    3.60903
C     -0.73692    1.46589    2.21651
C      0.00790   -0.81521    1.87852
C     -1.28917   -2.30695   -0.92015
C      0.34877   -1.94019    0.89599
C      0.07009   -0.09734   -2.43374
C      1.06755    1.02997   -2.76150
C     -0.52908    0.64098   -0.08113
C      1.78452   -0.15451   -0.78485
C      0.25469   -0.36299   -0.92708
C     -1.68019   -3.63700   -0.29282
C     -1.29642    3.32955    5.26871
C      3.77723    3.04422   -2.10285
N     -1.45367    3.52636    2.85966
N     -1.19596    2.75775    3.93826
N     -0.37403    0.39501    1.36479
N     -0.11299   -1.71706   -0.47410
N      2.10414    0.96219   -1.69368
O      0.12172   -1.04414    3.08412
O     -1.97958   -1.81217   -1.80849
O      3.16613    2.11458    0.31672
O      1.39972    3.38383   -1.00503
S      2.52731    2.43831   -0.96163
H     -1.31147    3.14981    0.80981
H     -0.49208    0.76993    4.34323
H      1.43475   -2.07644    0.91941
H     -0.08113   -2.84545    1.31429
H     -0.95150    0.16684   -2.69646
H      0.32224   -1.00977   -2.97904
H      1.53279    0.88788   -3.74114
H      0.57934    2.00739   -2.74754
H     -0.17903    1.65323   -0.28932
H     -1.58922    0.58656   -0.35214
H      2.12571    0.07696    0.22281
H      2.30255   -1.05506   -1.13352
H     -2.15495   -3.48155    0.68189
H     -0.82927   -4.30955   -0.15610
H     -2.41072   -4.10267   -0.95448
H     -0.41594    3.93901    5.49603
H     -2.18877    3.95586    5.31749
H     -1.37662    2.52284    5.99980
H      4.08539    4.02547   -1.73764
H      4.61041    2.34208   -2.09953
H      3.33360    3.13131   -3.09557
