42

C     -2.74075    2.97569   -2.63418
C     -2.06264    3.57914   -3.69861
C     -2.03477    2.17073   -1.73328
C      6.12037   -1.67979    1.46914
C     -0.69078    3.38479   -3.86944
C     -0.66310    1.96531   -1.88893
C      7.47338   -1.43526    1.23999
C      6.86751   -0.27971   -0.82012
C      5.12057   -1.23933    0.59289
C     -0.00043    2.57599   -2.95998
C      5.50716   -0.52429   -0.56316
C      7.81133   -0.73619    0.08662
C      3.35730    1.67251   -2.79874
C      3.34928    2.52731   -3.93687
C      4.57653    1.09722   -2.15882
C      3.67240   -1.57535    0.91175
C      2.67236   -0.95358   -0.06962
C      3.28722   -0.95014   -1.46478
C      4.47263    2.95495   -4.82398
N      2.11110    1.60291   -2.30941
N      2.09537    2.94231   -4.12658
N      1.39552    2.37194   -3.12830
N      4.48489   -0.09365   -1.46520
O      5.62463    1.73788   -2.27477
F      9.12428   -0.49467   -0.17231
H     -3.80834    3.13180   -2.50707
H     -2.60196    4.20670   -4.40281
H     -2.55227    1.69953   -0.90209
H      5.82524   -2.22692    2.36191
H     -0.15290    3.84664   -4.68894
H     -0.10518    1.34678   -1.19562
H      8.24541   -1.77258    1.92415
H      7.18266    0.26512   -1.69754
H      3.56485   -2.66745    0.88948
H      3.44356   -1.26833    1.93809
H      1.73302   -1.51654   -0.06763
H      2.43782    0.08063    0.20062
H      3.60616   -1.96183   -1.74498
H      2.58586   -0.59985   -2.21350
H      5.05039    2.09190   -5.16618
H      4.07894    3.49234   -5.68928
H      5.16373    3.59989   -4.27525
