17   

C        5.9158521383    0.1245285468   -0.8427791610
C        4.6764425716   -0.6282312984   -1.0436197808
C        5.9741688747    1.0500047126    0.1689329667
C        3.5816452153   -0.4470019345   -0.2372720023
C        4.8146093470    1.2603978207    1.0111313836
C        2.2659951024   -1.1421536125   -0.4086026817
C        2.1075632357   -2.3280659749   -1.3497842504
N        3.6763778502    0.5186271582    0.7948159959
O        4.8242463109    2.0843598199    1.9084028574
O        1.2844112229   -0.7092932295    0.1842437942
H        6.7741295463   -0.0417735752   -1.4858066485
H        4.6406100637   -1.3400600791   -1.8607793989
H        6.8598144452    1.6392565866    0.3624001759
H        2.8164822648   -3.1141604943   -1.0769383182
H        2.2903116361   -2.0123244560   -2.3800314584
H        1.0919023715   -2.7272770096   -1.2764448257
H        2.8787424703    0.7381231854    1.3833152543
17   

C        5.9079747520    0.1528479819   -0.8595982109
C        4.6589055294   -0.5745044709   -1.0908287193
C        5.9890274473    1.0089947977    0.2099260039
C        3.5834660551   -0.4497416214   -0.2487894074
C        4.8432078981    1.1730584330    1.0809014354
C        2.2471792405   -1.0928431639   -0.4736933631
C        2.1024882713   -2.3407474883   -1.3332309298
N        3.6987490963    0.4483618051    0.8404133852
O        4.8687075530    1.9445889504    2.0233296105
O        1.2419971995   -0.5386245452   -0.0465966649
H        6.7539931917    0.0251103773   -1.5272152456
H        4.5971821661   -1.2172855164   -1.9618579964
H        6.8814240605    1.5797457810    0.4264502751
H        2.7448703063   -3.1339392420   -0.9417086361
H        2.3838012132   -2.1193500070   -2.3656399697
H        1.0646332993   -2.6854685188   -1.3153662884
H        2.9024990037    0.6663352564    1.4308885835
17   

C        5.8956778775    0.2012279045   -0.9323448837
C        4.6328663803   -0.5018082196   -1.1635495827
C        6.0321054719    0.9650127008    0.1996925453
C        3.6045282893   -0.4538555016   -0.2576512753
C        4.9292382516    1.0586990005    1.1343350145
C        2.2465296070   -1.0559567065   -0.4933323175
C        2.0801107835   -2.3589228198   -1.2641532251
N        3.7723250294    0.3541489434    0.8932926161
O        5.0007248841    1.7538762649    2.1321662595
O        1.2512824461   -0.4054407909   -0.2061265544
H        6.7073697624    0.1300841814   -1.6491921933
H        4.5223791149   -1.0566357860   -2.0881609158
H        6.9362957722    1.5157886047    0.4189984573
H        2.4656214821   -3.1878941101   -0.6647407803
H        2.6183473872   -2.3175091719   -2.2132888024
H        1.0206092326   -2.5351992655   -1.4706777876
H        3.0021145765    0.5467522712    1.5249705397
17   

C        5.8836030000    0.2582816378   -0.9781710604
C        4.6132479791   -0.4209492860   -1.2363174634
C        6.0403607010    0.9450811819    0.1999127948
C        3.6013425379   -0.4282471819   -0.3126142550
C        4.9507354511    0.9836505582    1.1544695059
C        2.2352875803   -1.0068648768   -0.5900788114
C        2.0829501741   -2.3860422580   -1.2178042214
N        3.7851200550    0.3038176447    0.8852624276
O        5.0406364948    1.6093976738    2.1957965288
O        1.2549137168   -0.2830536710   -0.5134046149
H        6.6840311119    0.2309571444   -1.7105198759
H        4.4775944226   -0.9081829238   -2.1955156730
H        6.9508708245    1.4757270487    0.4415700445
H        2.1350033940   -3.1464227366   -0.4341486458
H        2.8756344455   -2.5722786704   -1.9453170321
H        1.1154895644   -2.4614220490   -1.7220333294
H        3.0271713702    0.4674839583    1.5387350271
17   

C        5.8667964417    0.3797742251   -1.0421655583
C        4.5899982013   -0.2778304771   -1.3226331220
C        6.0452658681    0.9858811203    0.1765708598
C        3.5912782317   -0.3358162693   -0.3893739771
C        4.9707008191    0.9642572199    1.1489274474
C        2.2241240464   -0.9227172934   -0.6800819235
C        2.0872051055   -2.3889210325   -1.0620182294
N        3.7946228611    0.3145635994    0.8516375041
O        5.0829261213    1.5083060305    2.2330611567
O        1.2725267753   -0.1776292616   -0.8361910436
H        6.6554691199    0.3967848362   -1.7874552880
H        4.4330535028   -0.7154138865   -2.3028980210
H        6.9627024015    1.4942741510    0.4390037221
H        2.0415791427   -2.9963432524   -0.1543274516
H        2.9447291165   -2.7071558847   -1.6597171742
H        1.1718311295   -2.5416812232   -1.6403865486
H        3.0559941139    0.4288949295    1.5362788372
17   

C        5.8226429860    0.5267112637   -1.1289760875
C        4.5511075813   -0.1149899769   -1.4645072484
C        6.0047949073    1.0086878206    0.1435070667
C        3.5478537131   -0.2468975202   -0.5457813942
C        4.9392067605    0.8744907927    1.1166460292
C        2.2190782802   -0.9123643688   -0.8553202577
C        2.0182808438   -2.3859388713   -0.5403714747
N        3.7625095884    0.2562205081    0.7605477688
O        5.0612230961    1.2864761622    2.2564316528
O        1.2871430145   -0.2533364983   -1.2786800561
H        6.6064900571    0.6226366268   -1.8733913842
H        4.4000437685   -0.4877256127   -2.4723875545
H        6.9207764339    1.4943007918    0.4504443824
H        2.4318542848   -2.6153804927    0.4450770388
H        2.5294456064   -2.9925693973   -1.2923372923
H        0.9520794500   -2.6290702977   -0.5467892358
H        3.0419993293    0.2703936914    1.4728286427
17   

C        5.7974500760    0.6506523468   -1.1635236216
C        4.5367766902    0.0094347126   -1.5381775611
C        5.9881630673    1.0202688696    0.1447216319
C        3.5413465505   -0.2103252775   -0.6269185319
C        4.9418642868    0.7708686488    1.1158294903
C        2.2620803939   -0.9397178983   -0.9788140454
C        1.9375266742   -2.2635499214   -0.3017562154
N        3.7713771416    0.1649553083    0.7202595985
O        5.0751652738    1.0697884099    2.2890598154
O        1.3949635532   -0.3917246713   -1.6356852497
H        6.5680663422    0.8293670763   -1.9064989138
H        4.3862064119   -0.2948646930   -2.5691216829
H        6.8983897055    1.4962844457    0.4823024100
H        2.2958902995   -2.2635216880    0.7304489366
H        2.4260626991   -3.0759418275   -0.8461967346
H        0.8569906485   -2.4316417925   -0.3049080112
H        3.0721016915    0.0818954636    1.4484013667
17   

C        5.7613837186    0.7971999394   -1.1484610224
C        4.5144051611    0.1466355658   -1.5509756486
C        5.9762195864    1.0477480985    0.1842006671
C        3.5492855179   -0.1866642816   -0.6395001967
C        4.9682138549    0.6668789340    1.1535468577
C        2.3169975310   -0.9543562677   -1.0464371933
C        1.8921438062   -2.1857158145   -0.2586340108
N        3.8063338430    0.0616298302    0.7321996922
O        5.1269930723    0.8520059392    2.3468903678
O        1.5514733184   -0.5003881308   -1.8801609597
H        6.5041413563    1.0728324067   -1.8901851609
H        4.3485765069   -0.0744693053   -2.6009236985
H        6.8793032773    1.5221341194    0.5426205657
H        1.7520060325   -1.9334719602    0.7949369548
H        2.6625493804   -2.9566294267   -0.3452708125
H        0.9531451828   -2.5790117626   -0.6585243937
H        3.1428694738   -0.1355673275    1.4713381361
17   

C        5.7522481831    0.8922191453   -1.1352176174
C        4.5300369650    0.2111095919   -1.5620081477
C        5.9808318605    1.0607368055    0.2081123836
C        3.5998078717   -0.2308578743   -0.6592301219
C        5.0117732722    0.5645700468    1.1651439912
C        2.4004493313   -1.0193468075   -1.1057766625
C        1.8642650749   -2.1567950809   -0.2480471108
N        3.8709517707   -0.0650648954    0.7223851936
O        5.1850493161    0.6740814975    2.3657774052
O        1.7582558882   -0.6634972888   -2.0813397249
H        6.4662884915    1.2538386177   -1.8681560360
H        4.3548380854    0.0546260307   -2.6222558772
H        6.8673435064    1.5527929704    0.5836624372
H        1.4180405048   -1.7585963038    0.6663796801
H        2.6791778271   -2.8382973394    0.0108451792
H        1.1040752076   -2.7136218749   -0.8034175724
H        3.2407382231   -0.3591095063    1.4583055357
17   

C        5.7388564215    0.9568460358   -1.1176602219
C        4.5306667650    0.2565790621   -1.5532354355
C        6.0049268414    1.0442307689    0.2264702130
C        3.6525239341   -0.2904090779   -0.6549309504
C        5.0887191784    0.4446119969    1.1761547663
C        2.4539807443   -1.0677588776   -1.1180386673
C        1.8004857975   -2.1018769363   -0.2114650011
N        3.9606941297   -0.2028197593    0.7264078190
O        5.2935479726    0.4857820065    2.3761102044
O        1.9254363648   -0.7978429940   -2.1860423422
H        6.4128738244    1.3969561716   -1.8455472801
H        4.3259650412    0.1719683490   -2.6165006067
H        6.8827933992    1.5473596998    0.6075998142
H        1.3527133120   -1.6099954293    0.6555351058
H        2.5492172905   -2.8247352367    0.1236505423
H        1.0189138613   -2.6351242682   -0.7603299270
H        3.3723982587   -0.5784580213    1.4597905927
17   

C        5.7067602370    1.0081258829   -1.1239322720
C        4.5285726370    0.2636271177   -1.5683312255
C        5.9966862870    1.0499359773    0.2173453367
C        3.7054487251   -0.3787117590   -0.6805186374
C        5.1342517850    0.3600142111    1.1556993125
C        2.5197847827   -1.1718559100   -1.1493680730
C        1.7700936939   -2.0938135455   -0.1968875962
N        4.0334609425   -0.3276589540    0.6983745057
O        5.3584639780    0.3637687799    2.3528852773
O        2.1089247694   -1.0374983989   -2.2928067971
H        6.3400598472    1.5167448086   -1.8436945828
H        4.3054328673    0.2233276060   -2.6305161302
H        6.8541365753    1.5830140678    0.6041912649
H        1.3201852703   -1.5103874585    0.6103980754
H        2.4586249956   -2.8319891658    0.2228901189
H        0.9775383432   -2.6198754080   -0.7369210355
H        3.4866311714   -0.7728706564    1.4248331827
17   

C        5.6717645829    1.0639868565   -1.1340210437
C        4.5259456542    0.2763829557   -1.5887287339
C        5.9832866111    1.0694226298    0.2030782357
C        3.7611081864   -0.4517666124   -0.7150190569
C        5.1749326951    0.2996602820    1.1273708744
C        2.5868448279   -1.2571693550   -1.1917704492
C        1.7421274718   -2.0633438493   -0.2139985223
N        4.1046674636   -0.4287647635    0.6608391189
O        5.4152192504    0.2758497148    2.3212040492
O        2.2979993940   -1.2712463204   -2.3796747577
H        6.2640297456    1.6334474159   -1.8430737941
H        4.2820115380    0.2740339458   -2.6470954116
H        6.8181034829    1.6324855980    0.5968809738
H        1.2978104848   -1.3974643619    0.5303581220
H        2.3637063105   -2.8108474794    0.2857630201
H        0.9393077677   -2.5756262410   -0.7521274470
H        3.5985471108   -0.9344673227    1.3771265751
17   

C        5.6032440849    1.1133733313   -1.1463752734
C        4.4926711631    0.2748161843   -1.5973546048
C        5.9437643756    1.1025979169    0.1836735135
C        3.7972412227   -0.5256767852   -0.7290774165
C        5.1999607489    0.2661134531    1.1043628562
C        2.6353004122   -1.3529533395   -1.1978756225
C        1.7039734310   -2.0278619329   -0.1997276860
N        4.1628089333   -0.5106985321    0.6410702270
O        5.4626588136    0.2322513360    2.2932232989
O        2.4609359928   -1.5396935368   -2.3933267147
H        6.1464567055    1.7334592043   -1.8522293107
H        4.2182236024    0.2912810935   -2.6481042720
H        6.7541438832    1.7020655173    0.5747774280
H        1.2736634896   -1.2789731180    0.4704882782
H        2.2562917291   -2.7688179800    0.3837501773
H        0.8915965881   -2.5310371640   -0.7320564301
H        3.7051729078   -1.0663095592    1.3530018915
17   

C        6.2646324447   -0.1042235401   -0.0290561994
C        5.2016605974   -1.0996667743   -0.1668776868
C        5.9218058761    1.2224927683    0.0569989079
C        3.8791654531   -0.7420714901   -0.1881625351
C        4.5240707773    1.6032857121    0.0099163526
C        2.8031174041   -1.7669852026   -0.4035259428
C        1.4439519664   -1.3619586091   -0.9576065530
N        3.5532291398    0.6360901057   -0.1161149794
O        4.1763999216    2.7692041234    0.0673662994
O        2.9716906851   -2.9186865758   -0.0316716827
H        7.3052980400   -0.4106087747    0.0019435219
H        5.4707810140   -2.1484267082   -0.2521727169
H        6.6633446927    2.0028977245    0.1576787527
H        1.5749786860   -0.8266939884   -1.9019323012
H        0.9240848153   -0.7201620060   -0.2420872922
H        0.8374784544   -2.2536275403   -1.1408491884
H        2.6055459814    0.9922103564   -0.1270402387
17   

C        6.2553280314   -0.1198954386   -0.0979051693
C        5.1842672215   -1.1105400017   -0.2042676826
C        5.9202016100    1.2013263042    0.0671635518
C        3.8645757574   -0.7562803635   -0.1116008681
C        4.5227518970    1.5807218965    0.1331817875
C        2.7738708443   -1.7682767120   -0.3256359304
C        1.4847957856   -1.3727882808   -1.0319329009
N        3.5450878036    0.6170891255    0.0355411321
O        4.1810213182    2.7431581090    0.2576819019
O        2.8478610604   -2.8717291498    0.1917436240
H        7.2954629886   -0.4247910483   -0.1524836814
H        5.4427600355   -2.1540499588   -0.3578102072
H        6.6673377685    1.9786795583    0.1482156221
H        1.7203762879   -0.8775119050   -1.9778485471
H        0.9041388599   -0.6956265614   -0.4009457829
H        0.8881429356   -2.2651179968   -1.2420139497
H        2.5989200381    0.9690143612    0.1138056994
17   

C        6.2272844804   -0.1397055875   -0.1880395027
C        5.1392162191   -1.1153863634   -0.2540694984
C        5.9213879338    1.1763666283    0.0554784021
C        3.8350699803   -0.7546262144   -0.0481453543
C        4.5375591195    1.5645826554    0.2427819608
C        2.7100581202   -1.7427273109   -0.2256238851
C        1.4988310558   -1.3739925046   -1.0708132899
N        3.5444004305    0.6141756379    0.1780635900
O        4.2202292863    2.7237659594    0.4406391570
O        2.6670714108   -2.7597157670    0.4460183003
H        7.2568265602   -0.4509588288   -0.3328893648
H        5.3726998259   -2.1537732290   -0.4685824941
H        6.6814919478    1.9432565589    0.1119478245
H        1.8118559361   -1.2187385283   -2.1067909987
H        1.0360549734   -0.4592382610   -0.6935344216
H        0.7633839191   -2.1830691589   -1.0421014275
H        2.6123748510    0.9668908708    0.3578340034
17   

C        6.1992284877   -0.1559825807   -0.3372011577
C        5.0916882610   -1.1108512265   -0.3862459378
C        5.9370152388    1.1430964353    0.0208402780
C        3.8129150645   -0.7479914620   -0.0658629252
C        4.5790719007    1.5339015817    0.3423082003
C        2.6433006371   -1.7024542371   -0.1830686826
C        1.5192573710   -1.4027096869   -1.1643381586
N        3.5669469613    0.6034611015    0.2828720030
O        4.3002397434    2.6786288740    0.6512518027
O        2.4842602734   -2.5917580194    0.6338754262
H        7.2093638708   -0.4692115051   -0.5807420199
H        5.2924778915   -2.1364197358   -0.6795209883
H        6.7130205801    1.8941467919    0.0737991797
H        1.7918727275   -1.7841522030   -2.1518840570
H        1.3501993180   -0.3255548853   -1.2352298081
H        0.5959227913   -1.8886464747   -0.8370141124
H        2.6609076355    0.9457857815    0.5794852155
17   

C        6.1504561298   -0.1305794210   -0.4545318109
C        5.0176085293   -1.0558283334   -0.4961741938
C        5.9448318825    1.1465293746    0.0052426350
C        3.7670383238   -0.6799469887   -0.0927472970
C        4.6202940519    1.5441470437    0.4387957621
C        2.5672923993   -1.6092903455   -0.1280453662
C        1.6352219865   -1.5977703888   -1.3288979707
N        3.5813757955    0.6440393539    0.3744877187
O        4.3951385878    2.6679795040    0.8511508125
O        2.3018030336   -2.3047498404    0.8352369586
H        7.1360947169   -0.4490026400   -0.7784077882
H        5.1790252378   -2.0691556110   -0.8492838287
H        6.7424107379    1.8743553431    0.0617197077
H        2.1056184946   -2.1282509940   -2.1607994388
H        1.4315242977   -0.5674434113   -1.6317668034
H        0.6918898486   -2.0900063274   -1.0763765752
H        2.7072676567    0.9746159104    0.7660673056
17   

C        6.0831807230   -0.0515948530   -0.5977071529
C        4.9153904775   -0.9320337403   -0.6467508212
C        5.9518614364    1.1906264726   -0.0283313176
C        3.6942522182   -0.5328527904   -0.1762688428
C        4.6694945719    1.5967814477    0.5113314209
C        2.4901168763   -1.4522332948   -0.1241555236
C        1.9160487022   -2.0330513716   -1.4077011961
N        3.5919767877    0.7453350235    0.4239011210
O        4.5180310790    2.6826095348    1.0423343658
O        2.1296882091   -1.9088465759    0.9467050932
H        7.0387123164   -0.3778216201   -0.9955604596
H        5.0319130867   -1.9305915479   -1.0545923232
H        6.7797632236    1.8822580277    0.0441266908
H        2.7170324708   -2.2442359195   -2.1202198446
H        1.2247778094   -1.3128654066   -1.8531390848
H        1.3764903578   -2.9592812098   -1.1915120850
H        2.7590839289    1.0552744328    0.9113456401
17   

C        6.0148596518   -0.0062254048   -0.7115337329
C        4.8362524857   -0.8712264875   -0.7783134840
C        5.9152564873    1.2007261012   -0.0653638692
C        3.6299478674   -0.4837633315   -0.2568374593
C        4.6540317894    1.5879247562    0.5341197267
C        2.4285075552   -1.3949924198   -0.1932650926
C        1.9894038700   -2.1960962299   -1.4118012211
N        3.5623540815    0.7582264571    0.4195062671
O        4.5358667147    2.6361147578    1.1434962857
O        1.9368128236   -1.6581980057    0.8929816472
H        6.9555368046   -0.3182989134   -1.1536917393
H        4.9421881325   -1.8482782503   -1.2365769605
H        6.7539789183    1.8768237154    0.0265351121
H        2.8532230305   -2.5275575817   -1.9916748465
H        1.3559189503   -1.5699757330   -2.0455782211
H        1.4183965821   -3.0734110680   -1.0952903570
H        2.7488653197    1.0354852869    0.9577079781
17   

C        5.9795701701    0.0335276033   -0.7635399337
C        4.7850138696   -0.8075839255   -0.8528403173
C        5.9170699438    1.2002464982   -0.0435800640
C        3.5972790777   -0.4367718741   -0.2765392429
C        4.6777949787    1.5703901250    0.6089787792
C        2.3735758340   -1.3102375635   -0.2338681400
C        2.0197293371   -2.2359302464   -1.3903522272
N        3.5701818718    0.7660333765    0.4706132693
O        4.5938388769    2.5805233410    1.2847238922
O        1.7457838108   -1.4009038984    0.8119685009
H        6.9034975126   -0.2650480005   -1.2482941875
H        4.8666472835   -1.7513756825   -1.3796630299
H        6.7691414461    1.8565015995    0.0673791976
H        2.8798738292   -2.8459490465   -1.6737307132
H        1.6997811937   -1.6394918629   -2.2488405733
H        1.2016917780   -2.9000979735   -1.0971544356
H        2.7690153731    1.0218502446    1.0380880337
17   

C        5.9502682931    0.0838724854   -0.8286863397
C        4.7376686839   -0.7309315204   -0.9200157073
C        5.9388435333    1.2040504986   -0.0358309638
C        3.5838576038   -0.3849710869   -0.2639081742
C        4.7341205082    1.5530420397    0.6890542003
C        2.3375478922   -1.2189739994   -0.2410791133
C        2.0390600636   -2.2291952883   -1.3398731522
N        3.6094311651    0.7726165746    0.5518147628
O        4.6953424214    2.5239321142    1.4238660801
O        1.6022919691   -1.1609443702    0.7366537706
H        6.8472609659   -0.1968073286   -1.3712735527
H        4.7742014333   -1.6339725551   -1.5190750504
H        6.8060098995    1.8396982188    0.0781308554
H        2.7903349556   -3.0226651316   -1.3332322258
H        2.0449553015   -1.7287357589   -2.3117807158
H        1.0530386923   -2.6737833894   -1.1774085279
H        2.8240970551    1.0162109400    1.1468644746
17   

C        5.9213977345    0.1137336371   -0.8343032563
C        4.7104396486   -0.6967258578   -0.9751631210
C        5.9203717958    1.1604181706    0.0533134753
C        3.5717258454   -0.4260322904   -0.2598670717
C        4.7276710998    1.4388055686    0.8266527616
C        2.3128572554   -1.2359473146   -0.3117005409
C        2.0916835000   -2.2971040570   -1.3804997538
N        3.6075671611    0.6601336797    0.6487752792
O        4.6952640410    2.3488039788    1.6359431280
O        1.4661278265   -1.0745732063    0.5597979753
H        6.8083001201   -0.1112895013   -1.4178708942
H        4.7357776517   -1.5331508839   -1.6647210709
H        6.7858889706    1.7905699436    0.2043306828
H        2.8260186316   -3.0985134823   -1.2664867728
H        2.1903829601   -1.8490506161   -2.3727013975
H        1.0877156928   -2.7197952446   -1.2820424084
H        2.8155631998    0.8692103505    1.2485724625
17   

C        5.9368578242    0.0968570098   -0.8680473649
C        4.7048948049   -0.6775506742   -1.0288789046
C        5.9794922491    1.0878034834    0.0804132172
C        3.5948888381   -0.4396215293   -0.2587513919
C        4.8110674266    1.3443253829    0.8970162873
C        2.2999404417   -1.1843748567   -0.3600517874
C        2.1025308203   -2.3101231765   -1.3656440082
N        3.6753594996    0.5908653002    0.7100472732
O        4.8120258379    2.2155214139    1.7485605103
O        1.3782794544   -0.8762857794    0.3874910119
H        6.8036266064   -0.1080674369   -1.4881276029
H        4.6894799717   -1.4564335690   -1.7830818539
H        6.8606224174    1.6923883424    0.2450444104
H        2.8228710954   -3.1094856240   -1.1735856056
H        2.2407320783   -1.9291345944   -2.3807803093
H        1.0909881473   -2.7161814353   -1.2749202387
H        2.8848859149    0.8109927475    1.3080687318
