26

C      2.47622   -0.39150    0.36350
C      1.39961   -0.14873    1.21794
C      2.85312   -0.56713    3.11102
C      3.75041   -0.72153    0.84392
C      1.58635   -0.24365    2.60485
C      3.91388   -0.79875    2.24290
C      4.85441   -0.98458   -0.11419
C     -0.69679    0.29317    3.07215
C      6.02286    0.01622    2.92749
N      4.84797   -0.29578   -1.21549
N      5.76274   -1.98168    0.16919
O      5.94714   -0.71082   -2.03702
O      0.60805   -0.04169    3.53785
O      5.14769   -1.11705    2.80121
H      2.33483   -0.33377   -0.71056
H      0.43240    0.09569    0.79452
H      3.00609   -0.63848    4.18319
H     -1.31043    0.41167    3.96604
H     -1.11457   -0.50560    2.44744
H     -0.69006    1.23380    2.50813
H      6.94292   -0.35288    3.38510
H      5.56915    0.77836    3.57154
H      6.24543    0.45293    1.94686
H      5.88591   -2.19766    1.15083
H      6.60051   -1.96887   -0.40000
H      5.87927   -0.09868   -2.78551
