21

C     -1.59148    4.01636    0.49629
C     -2.89340    3.73413    0.17899
C     -0.82198    2.84773    0.82201
C     -1.57762    1.69816    0.74422
C     -1.33501   -1.28893   -1.07111
C     -0.70438   -0.31780   -0.40429
C      0.64574    2.91008    1.16449
C     -1.13661    0.26456    0.92840
N     -2.22387   -0.51977    1.52667
S     -3.22347    2.03615    0.26741
H     -1.18395    5.02317    0.51066
H     -3.68266    4.42884   -0.08024
H     -0.96436   -1.64009   -2.03071
H     -2.24818   -1.73783   -0.69066
H      0.19101    0.13959   -0.82376
H      0.87477    3.82241    1.72422
H      0.96431    2.05813    1.77150
H      1.26617    2.91824    0.26001
H     -0.23658    0.29126    1.56602
H     -2.48139   -0.11243    2.42355
H     -1.90296   -1.47049    1.70301
