32

C      6.91349   -3.15276    5.36588
C      7.77216    3.99112    2.35428
C      8.08176    4.54833    3.59860
C      6.65397   -7.83477    2.97959
C      7.68314    2.60736    2.23072
C      8.30294    3.71487    4.69653
C      6.92649   -6.54623    2.46243
C      6.42563   -7.80839    4.33883
C      7.90037    1.76477    3.33723
C      8.22070    2.31717    4.60009
C      6.90453   -5.54354    3.42887
C      7.78652    0.31258    3.11566
C      7.44829   -1.74179    3.43664
C      7.15210   -4.16539    3.13620
C      7.16664   -3.07202    3.95940
C      8.49297    1.48368    5.83156
N      6.70637   -3.24458    6.50925
N      7.47906   -0.61563    4.09646
N      7.94560   -0.21718    1.91472
O      7.71342   -1.59401    2.12125
S      6.53808   -6.22385    5.00518
H      7.59624    4.62775    1.49156
H      8.15164    5.62691    3.71496
H      6.62601   -8.74131    2.38511
H      7.43497    2.15929    1.27373
H      8.55093    4.15651    5.65863
H      7.13469   -6.33814    1.41745
H      6.19509   -8.64441    4.98792
H      7.36106   -3.96821    2.08709
H      7.59105    0.97418    6.17914
H      9.23139    0.70095    5.63751
H      8.86892    2.11870    6.63807
