32

C      7.48882   -3.71732    4.59675
C      1.80499   -0.76540   -0.09084
C      0.47244   -0.86890    0.31723
C      2.80888   -1.27996    0.72512
C      0.16638   -1.48085    1.53443
C      9.27110   -2.97987    0.17992
C      9.14166   -2.65803   -1.13858
C      6.97554   -2.53457    0.08114
C      2.50616   -1.89686    1.95361
C      8.02367   -2.91533    0.91146
C      1.15837   -2.00243    2.37770
C      3.64024   -2.40855    2.74033
C      5.62930   -2.97286    3.19696
C      8.01153   -3.24672    2.31666
C      7.04767   -3.29358    3.29229
C      0.74688   -2.64589    3.67921
N      7.87883   -4.06308    5.63891
N      4.91852   -2.49612    2.20861
N      3.57075   -2.81200    3.99614
O      4.88582   -3.18771    4.30642
S      7.49258   -2.26780   -1.53099
H      2.05945   -0.28821   -1.03318
H     -0.32556   -0.47552   -0.30722
H      3.84732   -1.19933    0.42391
H     -0.87283   -1.55891    1.84395
H     10.21618   -3.25811    0.63579
H      9.90765   -2.62593   -1.90244
H      5.94275   -2.40656    0.36880
H      8.99455   -3.53391    2.68368
H      1.14515   -3.66034    3.77231
H      1.13132   -2.08970    4.53897
H     -0.34280   -2.68981    3.75149
