32

C      8.21177   -4.15737    4.35151
C      1.27225   -2.27356    0.53209
C      0.76782   -1.06058    1.00944
C      2.44160   -2.79144    1.08469
C      1.43260   -0.38707    2.03668
C      7.28450    0.36551    3.22082
C      7.56674    1.69683    3.12933
C      9.38687    0.45171    4.24452
C      3.11842   -2.10849    2.11087
C      8.33581   -0.38230    3.86975
C      2.61129   -0.88687    2.60928
C      4.34868   -2.72245    2.64096
C      6.30271   -2.95999    3.40637
C      8.45746   -1.79508    4.14611
C      7.65392   -2.88974    3.95311
C      3.26341   -0.11912    3.73706
N      8.69336   -5.16473    4.68478
N      5.45601   -2.01798    3.07723
N      4.49799   -4.03246    2.70562
O      5.79597   -4.19809    3.20835
S      9.11183    2.09071    3.82949
H      0.76246   -2.80907   -0.26394
H     -0.14264   -0.64178    0.58847
H      2.85041   -3.72965    0.72253
H      1.02385    0.54764    2.41325
H      6.37548   -0.09187    2.85852
H      6.95938    2.47921    2.69218
H     10.30432    0.16079    4.74165
H      9.41156   -2.04972    4.60218
H      3.58273   -0.77569    4.55015
H      4.15592    0.41376    3.39643
H      2.56598    0.61757    4.14455
