26

C      0.73019    1.32350    2.60338
C     -0.13388    0.89419    1.58077
C      0.34336    2.31209    3.49977
C     -0.92916    2.90709    3.40553
C     -1.38369    1.51539    1.46759
C     -1.78836    2.50813    2.37931
C     -0.47358   -1.50234    0.45596
C      0.89783   -2.21003    0.52420
C      0.32910   -0.17989    0.62530
C      2.42418    2.28046    4.69990
N      1.56102   -0.95338    1.02213
O     -1.30390    3.86411    4.29760
O      1.10752    2.80699    4.53078
Br    -2.53587    1.03859    0.01347
Br    -3.48843    3.35981    2.28609
H      1.72410    0.89794    2.66272
H     -1.06157   -1.61484   -0.45651
H     -1.10592   -1.71382    1.32308
H      0.98929   -3.06900    1.19546
H      1.29615   -2.48648   -0.45709
H      0.51484    0.27778   -0.35417
H      2.84935    2.80664    5.55487
H      3.03793    2.46640    3.81147
H      2.39174    1.20524    4.91012
H      1.57756   -1.01741    2.04013
H     -0.55496    3.99367    4.90792
