37

C      4.73732   -2.89340   -1.57643
C      4.81723   -1.83962   -0.65732
C      3.71852   -3.85167   -1.49887
C      3.73972   -7.71147   -3.37196
C      4.60041   -8.22805   -4.35370
C      3.86778   -1.71424    0.36664
C      1.77307   -8.57677   -4.53413
C      2.77331   -3.73512   -0.47339
C      2.34411   -7.86832   -3.44630
C      4.01507   -8.90436   -5.41015
C      2.63349   -9.07088   -5.49320
C      2.86870   -2.67072    0.42665
C      1.57812   -4.56000   -0.12494
C      1.48033   -7.28139   -2.39757
C      3.56470  -10.04390   -7.29611
C      0.15506   -7.91916   -2.04552
N      0.84527   -4.18409    0.88878
N      1.93452   -6.22205   -1.80754
N      1.18841   -5.67340   -0.80693
O      1.98109   -3.08419    2.93251
O      0.57407   -1.65927    1.38915
O      4.62503   -9.50222   -6.48587
O      2.31642   -9.77508   -6.63323
S      1.49262   -2.78072    1.58727
H      5.47782   -2.96971   -2.36781
H      5.61808   -1.11001   -0.74002
H      3.65436   -4.66149   -2.21281
H      4.15792   -7.19166   -2.51714
H      5.67746   -8.11515   -4.28292
H      3.90980   -0.89904    1.08271
H      0.70179   -8.70567   -4.64355
H      3.56987   -9.55108   -8.27422
H      3.69983  -11.12609   -7.38995
H      0.12616   -8.18648   -0.98164
H     -0.68305   -7.23905   -2.24110
H     -0.01453   -8.83865   -2.60327
H      0.33721   -6.11384   -0.46196
