36

C     -3.14407   -1.30360    6.31275
C     -2.26258   -0.26237    6.62380
C     -2.75427   -2.30099    5.41155
C      2.13888   -0.68300    0.68435
C      0.76068   -0.43174    0.85294
C      2.93787   -1.05932    1.75950
C     -0.99684   -0.20835    6.03397
C     -1.48824   -2.25541    4.82446
C      0.10928   -0.55224    2.08600
C      2.31811   -1.19436    3.00958
C      0.92765   -0.96099    3.15660
C     -0.61597   -1.20661    5.13427
C      1.89161   -1.51157    5.10381
C     -1.36220   -0.23211    2.21328
C      1.21007   -2.88692    7.15588
C      2.11223   -1.79345    6.56858
N      2.88026   -1.52857    4.23553
N      0.67382   -1.17105    4.51839
N      1.94265   -0.53895    7.33779
H     -4.12832   -1.33987    6.77222
H     -2.56019    0.51109    7.32683
H     -3.43236   -3.11510    5.16979
H      2.57946   -0.56510   -0.30218
H      0.17634   -0.11709   -0.00878
H      4.00378   -1.23772    1.65194
H     -0.29091    0.57491    6.28425
H     -1.16612   -3.02614    4.12985
H     -1.96622   -1.13048    2.37702
H     -1.56237    0.43914    3.05350
H     -1.72122    0.25072    1.30038
H      0.17432   -2.55546    7.24253
H      1.24225   -3.78758    6.53601
H      1.56713   -3.15589    8.15674
H      3.14682   -2.16099    6.60037
H      2.67320    0.11618    7.05996
H      2.09338   -0.73691    8.32696
