43

C     -1.04449    0.41933    3.65520
C     -1.95674    0.38741    4.73227
C     -2.22152    2.26223    2.66634
C     -1.14977    1.33757    2.61136
C     -3.02896    1.27283    4.80945
C     -2.67275    3.34262    1.81296
C     -3.13252    2.19341    3.75493
C     -3.81505    3.86620    2.38177
C     -2.42548    2.91475   -0.67271
C     -0.66307    4.09219   -2.02718
C     -2.01116    2.27056   -2.99036
C      0.66354    3.32321   -2.02138
C     -0.85338    1.27515   -3.09810
C     -0.15885    1.31269    1.47120
C     -4.03264    1.25650    5.93542
C     -4.73568    4.94685    1.91330
C     -2.05543    3.80237    0.52772
N     -4.08900    3.17386    3.55395
N     -1.81064    3.20008   -1.87557
O     -3.25196    2.01031   -0.57141
S      0.75621    2.10824   -3.39086
H     -0.23392   -0.30592    3.63831
H     -1.82307   -0.35361    5.51741
H     -0.66612    4.84377   -1.23747
H     -0.76762    4.62352   -2.98006
H     -2.09540    2.84956   -3.91658
H     -2.94656    1.73866   -2.81397
H      1.50352    4.00857   -2.16876
H      0.80120    2.81057   -1.06414
H     -0.79655    0.66782   -2.18972
H     -1.00131    0.60501   -3.94975
H     -0.66548    1.19867    0.50709
H      0.43882    2.23119    1.42897
H      0.53767    0.47687    1.58077
H     -4.05633    2.21487    6.47068
H     -5.04838    1.06161    5.56720
H     -3.79253    0.47848    6.66477
H     -5.69412    4.53351    1.57583
H     -4.94492    5.67324    2.70805
H     -4.30277    5.49168    1.07194
H     -2.36731    4.82794    0.29896
H     -0.96823    3.84090    0.62979
H     -4.86296    3.37034    4.17156
