42

C     -1.79149   -2.58551   -4.92500
C     -0.80282   -3.04575   -4.05246
C     -3.14414   -2.72287   -4.57710
C     -1.13078   -3.63889   -2.82451
C     -0.60284   -5.57605    2.36189
C     -0.85789   -3.18355    2.43542
C     -3.48064   -3.30515   -3.36240
C     -0.85911   -4.37334    1.70181
C     -2.48100   -3.74975   -2.47549
C     -0.35656   -5.60875    3.73478
C     -0.39471   -4.41660    4.49366
C     -0.63448   -3.21450    3.81113
C     -2.59346   -4.70200   -0.10550
C     -4.84498   -3.55589   -2.76090
C      0.19074   -6.62610    6.71472
C     -4.53786   -4.52061   -1.59881
C      0.84546   -6.89587    5.36003
C     -0.76783   -5.43926    6.61513
C     -1.13964   -4.34584    0.21925
N     -3.09300   -4.31953   -1.33200
O     -3.31496   -5.28971    0.69722
O     -0.11600   -6.84705    4.28945
O     -0.18806   -4.36564    5.84845
Cl    -0.67170   -1.71541    4.71885
H     -1.51454   -2.13509   -5.87393
H      0.24470   -2.95806   -4.32839
H     -3.92384   -2.38114   -5.25396
H     -0.33708   -4.01297   -2.19223
H     -0.58852   -6.51901    1.82353
H     -1.04549   -2.23021    1.95083
H     -5.27668   -2.61855   -2.38934
H     -5.55262   -3.98555   -3.47452
H     -0.36991   -7.50378    7.05566
H      0.97833   -6.42780    7.45060
H     -5.10419   -4.32254   -0.68978
H     -4.70841   -5.56529   -1.88168
H      1.64308   -6.17247    5.16279
H      1.27526   -7.89978    5.32156
H     -1.71485   -5.73853    6.15579
H     -0.98078   -5.01400    7.59861
H     -0.90248   -3.36082   -0.19010
H     -0.49613   -5.06772   -0.29724
