32

C      7.59524   -4.36855    4.33378
C      1.34930   -1.54716   -0.04112
C      0.84499   -0.36422    0.50693
C      2.39714   -2.20419    0.59953
C      1.38852    0.14027    1.69007
C      8.92826    0.18108    5.21192
C      8.76066    1.53029    5.11013
C      6.93473    0.26450    3.98847
C      2.95378   -1.69109    1.78523
C      7.87726   -0.57743    4.56720
C      2.44442   -0.50185    2.35362
C      4.05819   -2.45008    2.39883
C      5.86675   -2.92604    3.38475
C      7.93215   -2.01988    4.58501
C      7.13134   -3.02430    4.10203
C      2.96750    0.09334    3.64146
N      7.99941   -5.44211    4.53834
N      5.13364   -1.88826    3.06391
N      4.11849   -3.76609    2.31868
O      5.31853   -4.08896    2.96546
S      7.31639    1.91893    4.22159
H      0.93299   -1.95227   -0.95921
H      0.02819    0.16158    0.01922
H      2.80380   -3.12136    0.18506
H      0.97961    1.05234    2.11849
H      9.76686   -0.27872    5.72549
H      9.39209    2.31863    5.49883
H      6.04989   -0.03827    3.44880
H      8.81682   -2.39605    5.09426
H      3.20407   -0.66940    4.38627
H      3.88502    0.66517    3.46960
H      2.22837    0.77555    4.06972
