74

C      4.35447   -0.58238   -3.26473
C      4.39448   -1.21948   -2.01876
C      3.31121    0.30535   -3.54725
C      2.40935  -16.85959   -7.01245
C      1.20021  -17.38142   -7.47955
C      3.39847   -0.97835   -1.07238
C      2.32020    0.55223   -2.59353
C      0.92344   -3.23070    0.98941
C      0.64871   -2.69913   -1.33799
C     -1.50530   -1.09931    1.61691
C      1.04512   -4.57935    0.67510
C      0.76013   -4.05148   -1.67202
C     -2.36831   -0.79922    2.67011
C      2.49006  -15.49288   -6.75000
C     -0.70987    0.73202    3.55040
C      0.12877  -16.50336   -7.66252
C      0.74146   -2.25683   -0.01172
C      2.33771   -0.09442   -1.34476
C     -0.24979   -0.48446    1.49361
C      0.15375    0.43636    2.49326
C      0.96922   -5.00099   -0.66211
C     -1.96750    0.12669    3.64038
C      1.35652  -14.69226   -6.96157
C      0.63654   -0.81772    0.34640
C      1.28766    0.17039   -0.32796
C      1.52520    1.06928    2.43122
C      0.98852    1.62297   -0.00222
C      1.67460    2.10022    1.29362
C      1.38368  -13.21757   -6.67103
C      1.26242   -8.94830   -3.58797
C      1.26417   -8.33308   -2.18406
C      1.45656  -10.46978   -3.55891
C      1.06055   -6.82569   -2.22015
C      1.46316  -11.07489   -4.96088
N      0.19354  -15.18875   -7.41167
O      0.30892  -13.37323   -4.16249
O     -2.76126    0.47050    4.70959
O      1.10052   -6.34738   -0.87422
S      1.58457  -12.91396   -4.84242
H      5.12924   -0.77136   -4.00345
H      5.20557   -1.90426   -1.78333
H      3.26783    0.80585   -4.51158
H      3.27020  -17.50426   -6.85504
H      1.08571  -18.43940   -7.69711
H      3.43326   -1.48063   -0.11046
H      1.50869    1.23512   -2.83251
H      0.97784   -2.92010    2.02940
H      0.48944   -1.97368   -2.12959
H     -1.81252   -1.82482    0.86905
H      1.19871   -5.32625    1.44880
H      0.68044   -4.34647   -2.71211
H     -3.34166   -1.28312    2.73739
H      3.41106  -15.04984   -6.37966
H     -0.41274    1.43014    4.32861
H     -0.82927  -16.87137   -8.02644
H      1.76523    1.53839    3.39036
H      2.26304    0.27515    2.27034
H      1.30099    2.26984   -0.82641
H     -0.09309    1.74825    0.11525
H      1.23042    3.05853    1.58886
H      2.74181    2.27927    1.11790
H      2.22942  -12.71938   -7.15703
H      0.43996  -12.76299   -6.97959
H      0.31433   -8.71616   -4.09105
H      2.05500   -8.48706   -4.19288
H      0.47214   -8.78356   -1.57518
H      2.21350   -8.54774   -1.67980
H      2.39752  -10.71026   -3.04810
H      0.65203  -10.93506   -2.97964
H      0.09262   -6.57652   -2.67705
H      1.85067   -6.34129   -2.81087
H      0.53087  -10.85389   -5.49172
H      2.31333  -10.72124   -5.55572
H     -3.59550   -0.02169    4.65238
