74

C      2.71513    2.10440   -2.73326
C      2.27006    1.05624   -1.92187
C      0.77415    3.38701   -2.14003
C      0.32702    2.33869   -1.33510
C      1.98111    3.28771   -2.84728
C      1.06884    1.15371   -1.21407
C      2.29015    5.82268   -3.15129
C     -0.79645   -0.50382   -0.74891
C      3.68611    6.41607   -3.32695
C     -0.39780   -1.50296   -1.82332
C      2.43811    4.40505   -3.78017
C      0.58016    0.02054   -0.30662
C      1.71497    4.28746   -5.12793
C      0.63044    0.44594    1.16404
C      6.03932    5.34689   -5.21778
C      0.92300   -3.72477   -3.06859
C      6.85409    4.84906   -1.42157
C      6.50965    2.98981   -3.06033
C      8.33246    4.68034   -3.43502
C      3.97992   -2.40890   -1.00661
C      2.45744   -4.25335   -0.23016
C      3.64936   -4.40251   -2.43467
C      5.91794    5.40500   -3.68653
C      1.71460   -2.75787   -2.17088
C      6.89795    4.47065   -2.91425
C      2.93045   -3.44973   -1.45451
N      4.53276    5.22768   -3.19459
N      0.74652   -2.19166   -1.21000
O      3.84414    4.28180   -4.08392
O      1.43685   -1.13133   -0.43645
H      3.64527    2.01025   -3.28210
H      2.86027    0.15231   -1.83069
H      0.17139    4.28970   -2.21346
H     -0.61055    2.45316   -0.79508
H      2.04633    5.74789   -2.09044
H      1.51679    6.41503   -3.64697
H     -1.45389    0.28097   -1.12551
H     -1.28820   -1.01674    0.08308
H      3.79240    6.90397   -4.30901
H      3.94797    7.13149   -2.54262
H     -1.18756   -2.22681   -2.03298
H     -0.12889   -0.97948   -2.75541
H      2.01343    5.10644   -5.79016
H      0.63088    4.31927   -4.98337
H      1.96849    3.33821   -5.60875
H      0.30922   -0.38293    1.80118
H     -0.02024    1.30753    1.34186
H      1.65045    0.72811    1.43977
H      5.95097    4.32644   -5.59476
H      7.00094    5.75555   -5.53733
H      5.25236    5.93875   -5.69298
H      0.48154   -4.53801   -2.48419
H      1.57035   -4.15720   -3.83145
H      0.11727   -3.20947   -3.59550
H      7.19931    5.87887   -1.26465
H      5.83598    4.76539   -1.03254
H      7.50362    4.18810   -0.83667
H      6.45201    2.68100   -4.10900
H      5.54064    2.79940   -2.59587
H      7.25535    2.35639   -2.56614
H      8.46003    4.30224   -4.45390
H      9.04537    4.14851   -2.79540
H      8.61139    5.74145   -3.42933
H      4.34091   -1.82490   -1.86236
H      3.58018   -1.71872   -0.26551
H      4.84624   -2.92117   -0.57206
H      1.70107   -4.99716   -0.50227
H      2.02309   -3.59720    0.52705
H      3.30550   -4.78675    0.21498
H      3.05087   -5.28473   -2.67864
H      4.58161   -4.75698   -1.98247
H      3.91258   -3.89643   -3.37166
H      6.17513    6.42631   -3.37518
H      2.11511   -1.95287   -2.81143
