62

C      0.41216   -3.56356    7.75104
C      0.09758   -6.91825   -0.72756
C      1.61039   -3.18747    7.13302
C     -0.43557   -4.47387    7.11249
C      0.33428   -5.54082   -0.81341
C      0.80658   -7.68985    0.19849
C      1.75045   -0.90918    1.69456
C     -0.40474   -1.81016    2.22994
C      1.95949   -3.71933    5.88949
C     -0.08472   -5.00018    5.86508
C      1.27819   -4.94440    0.02669
C      1.74276   -7.08326    1.04309
C      2.35580   -2.06721    2.17229
C      0.19412   -2.98361    2.69903
C      0.35276   -0.76183    1.70080
C      1.11494   -4.63237    5.24382
C      1.98962   -5.70567    0.96926
C      1.58521   -3.14125    2.65541
C     -1.00621   -1.99611   -3.13726
C     -1.23707    2.35417    1.59855
C      0.23123    1.85367    1.54573
C     -1.70982    0.87621    1.55538
C     -0.28433    0.45522    1.06953
C     -0.95801   -1.77343   -4.63028
C      1.50098   -5.24841    3.91363
C      2.94080   -5.03473    1.94439
C     -0.20753    0.35465   -0.46977
C     -0.79675   -0.93713   -1.01442
N      2.25245   -4.33393    3.05494
O     -1.24857   -3.05982   -2.59569
O     -0.75757   -0.85052   -2.46466
H      0.13963   -3.14690    8.71745
H     -0.63529   -7.38577   -1.38054
H      2.27181   -2.47504    7.62022
H     -1.37182   -4.76806    7.58049
H     -0.21738   -4.93010   -1.52253
H      0.63022   -8.76077    0.26567
H      2.37418   -0.10215    1.31523
H     -1.48882   -1.73542    2.25211
H      2.88165   -3.41931    5.40055
H     -0.75411   -5.69949    5.36710
H      1.45786   -3.87511   -0.04454
H      2.28662   -7.68721    1.76743
H      3.43943   -2.15153    2.17298
H     -0.43820   -3.78079    3.07105
H     -1.52128    2.91257    0.70238
H     -1.52831    2.93725    2.47593
H      0.91952    2.37798    0.87474
H      0.68253    1.79324    2.53991
H     -1.92556    0.49522    2.55689
H     -2.55261    0.63487    0.89986
H     -1.83598   -1.19665   -4.93857
H     -0.96177   -2.73576   -5.14176
H     -0.07148   -1.19690   -4.90573
H      2.15923   -6.10550    4.10145
H      0.60675   -5.66244    3.42248
H      3.61153   -5.77714    2.38933
H      3.56562   -4.30676    1.42356
H      0.84177    0.41773   -0.78123
H     -0.72686    1.20721   -0.92298
H     -0.22898   -1.81133   -0.69476
H     -1.83635   -1.08247   -0.70423
