50

C     -5.75777    1.47834    8.41223
C     -8.63186   -0.31297    2.58028
C     -6.56472    0.42829    8.80132
C     -9.00285    0.86253    3.23429
C     -7.31489   -0.77763    2.66797
C     -6.16991    2.36463    7.39761
C     -9.92859   -0.90879    7.92039
C     -6.72973    1.15557    3.98975
C    -10.27512    0.04825    6.93535
C     -7.83064    0.24263    8.18819
C     -8.04918    1.60947    3.93870
C     -6.36143   -0.05369    3.38942
C     -8.71390   -0.81897    8.56793
C     -8.27312    1.15154    7.16647
C     -7.39838    2.21752    6.77171
C     -8.33953   -1.78937    9.65845
C     -6.77977   -3.90211    7.14619
C     -8.46602    2.87448    4.65021
C     -5.71639   -2.84775    6.81938
C     -5.91520   -2.23235    5.43065
C     -4.87728   -1.15858    5.08927
C     -4.98550   -0.62224    3.64856
N     -9.49572    1.04409    6.57027
O     -4.01907    0.41576    3.41796
O     -7.69142    3.16718    5.83411
H     -4.78734    1.62322    8.87982
H     -9.37302   -0.88302    2.02557
H     -6.23434   -0.25019    9.58030
H    -10.03884    1.19332    3.21477
H     -7.03650   -1.71508    2.19139
H     -5.52861    3.17956    7.07526
H    -10.63291   -1.69896    8.16780
H     -5.97814    1.72532    4.52461
H    -11.24235   -0.01949    6.43708
H     -7.39119   -2.29038    9.44480
H     -8.22591   -1.27252   10.61826
H     -9.10718   -2.55780    9.77600
H     -6.75676   -4.72185    6.41863
H     -6.62704   -4.33743    8.13999
H     -7.78437   -3.46535    7.12023
H     -8.28176    3.74968    4.01890
H     -9.52555    2.83075    4.90246
H     -5.74078   -2.04745    7.56901
H     -4.71780   -3.30051    6.88319
H     -6.91805   -1.79502    5.37256
H     -5.88421   -3.02983    4.67457
H     -3.86640   -1.57176    5.22909
H     -4.97822   -0.31247    5.77935
H     -4.80760   -1.45309    2.94891
H     -3.16482    0.10106    3.75428
