29   

C        2.3389620861   -3.4221825631    0.5439753594
C        3.2065756597   -2.6154470392    1.2809964265
C        0.9622421874   -3.3153064079    0.7429338152
C        2.6974110174   -1.7147395468    2.2231506994
C        0.4537530368   -2.4142112537    1.6847961102
C       -0.2790623429   -3.4369914462    5.7022624606
C        0.2847855358   -4.6919642753    5.9430701220
C       -1.2499716360   -4.2860997743    3.6656357164
C        1.3108384069   -1.6114618286    2.4591259217
C       -1.0381850732   -3.2161565028    4.5480922942
C        0.0984276264   -5.7506541075    5.0461631265
C       -0.6828197093   -5.5456532047    3.8944528218
C        0.8672672910   -0.6482524085    3.4698439638
C       -0.3002261262   -0.4753195610    4.1185626354
O       -2.5049105236   -1.5637453744    2.9423991588
O       -2.5720128494   -1.1368246262    5.3403613484
S       -1.7445522228   -1.5675817976    4.2032467802
Cl       0.8360672156   -7.3030399247    5.3772864789
Cl      -0.9529769487   -6.8334644677    2.7401432253
H        2.7305841773   -4.1202347106   -0.1876440528
H        4.2766904047   -2.6873719112    1.1222750369
H        0.2820300022   -3.9221867955    0.1557074725
H        3.3963733634   -1.1025932340    2.7820811815
H       -0.6179524168   -2.3304650474    1.7533610439
H       -0.1226251432   -2.6305371840    6.4134239947
H        0.8780329497   -4.8530335333    6.8354853402
H       -1.8597684541   -4.1425566448    2.7780363264
H        1.6380883243    0.0460651535    3.7883642812
H       -0.3933383343    0.3635343620    4.7917274586
29   

C        2.1697918634   -3.6191141673    0.7470930847
C        3.0595659381   -2.9310470611    1.5739587336
C        0.8127967765   -3.2939218834    0.7707648135
C        2.5900918421   -1.9283867277    2.4300300133
C        0.3439863187   -2.2928880339    1.6285576889
C       -0.1984118237   -3.3924375651    5.6653176603
C        0.4429726536   -4.6177544864    5.8619438418
C       -1.1162266193   -4.2284224972    3.5992253675
C        1.2209392305   -1.6029353583    2.4840970223
C       -0.9693125220   -3.1788412287    4.5179854220
C        0.3239411596   -5.6528734690    4.9265253766
C       -0.4702935736   -5.4566683004    3.7824226799
C        0.7885850688   -0.5637590292    3.4267177528
C       -0.3743241938   -0.4020685206    4.0822573255
O       -2.5672507963   -1.5839879228    2.9838127145
O       -2.5651533991   -1.1754475995    5.3870002731
S       -1.7622824617   -1.5617988128    4.2165904350
Cl       1.1620762270   -7.1649152447    5.1997084900
Cl      -0.6560306314   -6.7141869929    2.5790441897
H        2.5312893310   -4.3960261051    0.0825262180
H        4.1155444283   -3.1758560926    1.5528877584
H        0.1206537684   -3.8101931213    0.1148478041
H        3.2998586498   -1.4127574362    3.0671836328
H       -0.7040483908   -2.0353125682    1.5766057749
H       -0.0912906371   -2.6022274127    6.4033322999
H        1.0463278663   -4.7730494851    6.7484812838
H       -1.7307127428   -4.0890060883    2.7143189328
H        1.5684644045    0.1231336726    3.7393023937
H       -0.4921761618    0.4539443900    4.7293142511
29   

C        1.9303844169   -3.7764450983    0.8929506742
C        2.8001711325   -3.2780904574    1.8656005046
C        0.6687240384   -3.2002727374    0.7319344376
C        2.4073416923   -2.2072085649    2.6767166036
C        0.2736649535   -2.1356663236    1.5493853361
C       -0.1656013425   -3.3572057432    5.6432831297
C        0.5498860006   -4.5446604289    5.8170809749
C       -0.9897524819   -4.1879571822    3.5363055743
C        1.1372304989   -1.6222771799    2.5329554373
C       -0.9251528559   -3.1579510148    4.4858379035
C        0.5162392270   -5.5558898259    4.8489570007
C       -0.2700909599   -5.3776570543    3.6967834579
C        0.7369044206   -0.5324933946    3.4406843584
C       -0.4296955076   -0.3681635046    4.0831935455
O       -2.5639756977   -1.6120140972    2.9446455589
O       -2.6124679220   -1.2249927591    5.3560225623
S       -1.7822862263   -1.5716031329    4.1920691800
Cl       1.4525619362   -7.0148003600    5.0899437292
Cl      -0.3498755379   -6.6062921331    2.4524261187
H        2.2337719381   -4.6052436427    0.2628963956
H        3.7800201295   -3.7242382884    1.9929966081
H       -0.0060048600   -3.5750298353   -0.0297344207
H        3.0930776344   -1.8407725934    3.4322885025
H       -0.6993116402   -1.6885499411    1.3831849878
H       -0.1197086078   -2.5821760115    6.4033489804
H        1.1475699726   -4.6872502462    6.7095277365
H       -1.5898307235   -4.0575039674    2.6402600513
H        1.5364691080    0.1148349395    3.7860954834
H       -0.5655817877    0.4834630994    4.7322921591
29   

C        1.8008455451   -3.8156935882    0.9547600542
C        2.6081834007   -3.4208168613    2.0246434698
C        0.6320807889   -3.1057976044    0.6692797023
C        2.2526323354   -2.3112453346    2.8003170364
C        0.2726513879   -2.0034748318    1.4524016391
C       -0.1359673590   -3.3344287345    5.6256788953
C        0.6040835302   -4.5061408662    5.8049247690
C       -0.9015844979   -4.1700015449    3.4984195305
C        1.0907881315   -1.5767877120    2.5123706319
C       -0.8796326192   -3.1457765120    4.4561351967
C        0.6088178018   -5.5129773549    4.8315924705
C       -0.1616289013   -5.3462150384    3.6671369544
C        0.6919943487   -0.4564548508    3.3922654672
C       -0.4509102876   -0.3416796510    4.0807140972
O       -2.5192412325   -1.6320503597    2.8864742755
O       -2.6380684756   -1.2634998938    5.3011155646
S       -1.7720840820   -1.5801583283    4.1547440637
Cl       1.5730420595   -6.9521407217    5.0810880817
Cl      -0.1974478738   -6.5730126087    2.4187168805
H        2.0762942095   -4.6740633747    0.3520452159
H        3.5084860198   -3.9786869720    2.2560928727
H       -0.0004639499   -3.4095232057   -0.1574453612
H        2.8821559144   -2.0268902312    3.6358313904
H       -0.6378543430   -1.4628658473    1.2149424268
H       -0.1214131767   -2.5632793831    6.3908730072
H        1.1899439302   -4.6403781871    6.7064818733
H       -1.4856651894   -4.0456315586    2.5909946311
H        1.4874331944    0.2006853036    3.7284473059
H       -0.5987003828    0.4932853151    4.7484513434
29   

C        1.9722259673   -3.2305075053    0.8219747597
C        2.3187181307   -4.0037429178    1.9336348933
C        1.6805807846   -1.8734097869    0.9840881029
C        2.3931614368   -3.4154900668    3.2016116832
C        1.7484203766   -1.2894396111    2.2537432522
C       -0.8294991004   -3.8734825096    4.9312125705
C       -0.9539761965   -5.1491235528    4.3739245972
C       -1.0874095283   -2.9140180858    2.7347695474
C        2.1472752585   -2.0436623913    3.3688127183
C       -0.8744614520   -2.7419308704    4.1102769547
C       -1.1383076534   -5.3204406621    2.9961878379
C       -1.2159891095   -4.1872273722    2.1673078083
C        2.1380856025   -1.4559277123    4.7318931350
C        1.0608777457   -1.0821932333    5.4302754968
O       -0.7914162519   -0.0422554428    3.7543679282
O       -1.5495354703   -0.8537102961    5.9345613347
S       -0.6366877044   -1.0675511846    4.8007158712
Cl      -1.2647568094   -6.9359249540    2.3348994156
Cl      -1.4544984053   -4.3407545362    0.4396289072
H        1.9151012759   -3.6851248918   -0.1608905458
H        2.5217265057   -5.0618837222    1.8134085897
H        1.3941658877   -1.2725078809    0.1281235059
H        2.6433917842   -4.0308591284    4.0582913569
H        1.5007158876   -0.2388895728    2.3716355153
H       -0.6868765699   -3.7626340179    6.0025596480
H       -0.9049328749   -6.0230507004    5.0126298666
H       -1.1369990031   -2.0445728159    2.0852785625
H        3.0183597925   -1.6399018467    5.3392121374
H        1.1535399256   -0.7913424768    6.4654445712
29   

C        2.0065965674   -3.2926244510    0.8698480964
C        2.2357737340   -4.0196022438    2.0419441098
C        1.8131422181   -1.9096015630    0.9361659566
C        2.2877670053   -3.3612636486    3.2760795398
C        1.8651362598   -1.2536569891    2.1711212036
C       -0.7878955334   -3.9544955673    4.9276074231
C       -0.9010023079   -5.2127890661    4.3292348482
C       -1.0577151372   -2.9279065830    2.7623903248
C        2.1401816937   -1.9678322427    3.3463124774
C       -0.8460871685   -2.7981923105    4.1429670919
C       -1.0888987480   -5.3413723808    2.9470339599
C       -1.1786386852   -4.1830346251    2.1549431587
C        2.1264060470   -1.2895134311    4.6700026622
C        1.0602188145   -1.0368348903    5.4342764506
O       -0.9312033797   -0.0947316686    3.8831700263
O       -1.5308792321   -1.0166200009    6.0654691685
S       -0.6614624737   -1.1403722253    4.8848049830
Cl      -1.2058306016   -6.9355138018    2.2344408289
Cl      -1.4249944383   -4.2826967591    0.4243546272
H        1.9632606621   -3.8023140278   -0.0863603415
H        2.3625876994   -5.0952576486    1.9947847435
H        1.6160695927   -1.3447657417    0.0318053210
H        2.4467832320   -3.9366889166    4.1809731575
H        1.6924314004   -0.1830358214    2.2186242872
H       -0.6498063488   -3.8758380554    6.0024947804
H       -0.8440302783   -6.1064389651    4.9393470938
H       -1.1181588258   -2.0383513455    2.1414267738
H        3.0778400743   -1.2639686160    5.1913481399
H        1.1830590193   -0.6930242610    6.4498827180
29   

C        2.9047862707   -4.2380594400    1.9688945056
C        3.1924022765   -4.0801538307    3.3272834054
C        2.2036659513   -3.2386333222    1.2891073506
C        2.7582741725   -2.9364868623    4.0068926939
C        1.7782910173   -2.0935004526    1.9717067264
C       -0.3597239362   -4.1885450152    4.0233492539
C       -0.7412407063   -4.8794868460    2.8726353262
C       -1.7092946736   -2.3153401043    3.3286415631
C        2.0025143710   -1.9545791265    3.3505991127
C       -0.8275050543   -2.8903211626    4.2544202913
C       -1.5958962620   -4.2944956449    1.9319214941
C       -2.0908050428   -2.9977776811    2.1653942113
C        1.6164645780   -0.7049149725    4.0536402430
C        0.6689720958   -0.5680780713    4.9868592657
O       -1.3984002293   -1.4072116735    6.4561943233
O        0.6339568995   -2.7727677834    6.5482057711
S       -0.2522481487   -1.9476092892    5.7088978838
Cl      -2.0233977424   -5.1831382706    0.4860180549
Cl      -3.1602043361   -2.2177897788    1.0200398651
H        3.2347310744   -5.1263160976    1.4416937885
H        3.7547760233   -4.8411022331    3.8568434030
H        1.9899235284   -3.3488999701    0.2318630137
H        2.9946512239   -2.8189829298    5.0601733807
H        1.2436476667   -1.3212471217    1.4298692089
H        0.3204444174   -4.6542576316    4.7320316708
H       -0.3604397197   -5.8786060624    2.6982579366
H       -2.0945877255   -1.3146885441    3.4998571351
H        1.8799590830    0.2229058062    3.5562389392
H        0.3716264853    0.4086048333    5.3367916076
29   

C        2.9726806233   -4.2275675590    1.9978303455
C        3.1166408086   -4.0875925137    3.3803729134
C        2.3773676256   -3.2034151199    1.2571932112
C        2.6400282118   -2.9390194823    4.0219433503
C        1.9108492258   -2.0522189335    1.9017541298
C       -0.3733883962   -4.2152635103    4.0631727485
C       -0.7773523790   -4.8972478879    2.9144092383
C       -1.7093345812   -2.3244024657    3.3912520758
C        1.9831324431   -1.9310626064    3.2986739001
C       -0.8214027441   -2.9118541914    4.3033896555
C       -1.6373348379   -4.2990441890    1.9866636715
C       -2.1147262838   -2.9980796229    2.2314225248
C        1.5350846803   -0.6883072074    3.9660982485
C        0.6707270690   -0.5830064508    4.9832800024
O       -1.3386156799   -1.4368670270    6.5220475039
O        0.7023207909   -2.7888224329    6.5614300483
S       -0.2099049430   -1.9703118870    5.7440602724
Cl      -2.0934915404   -5.1767244926    0.5427635568
Cl      -3.1905212612   -2.2012756397    1.1036329281
H        3.3342034944   -5.1204284190    1.4999340107
H        3.6024689228   -4.8654451368    3.9588878234
H        2.2771765521   -3.2997591991    0.1819045175
H        2.7816425632   -2.8364237361    5.0930942300
H        1.4576997681   -1.2631665841    1.3119991358
H        0.3097455834   -4.6916203014    4.7617256270
H       -0.4104450130   -5.8998904774    2.7307023028
H       -2.0796176132   -1.3193550633    3.5696085043
H        1.7048294842    0.2372674156    3.4255615475
H        0.3620220653    0.3875365481    5.3405713144
29   

C        3.0524526216   -4.1712132485    1.9804079909
C        3.0195593508   -4.0885512640    3.3740415505
C        2.5988040678   -3.0957536381    1.2136725061
C        2.5064765156   -2.9457302140    3.9975422686
C        2.0946609969   -1.9507392810    1.8405492938
C       -0.4370159228   -4.2148406064    4.1756074669
C       -0.8632674234   -4.9392279114    3.0610215279
C       -1.7277923765   -2.3245924405    3.4194072922
C        1.9906428089   -1.8803797955    3.2396474813
C       -0.8508618879   -2.8905813151    4.3554125834
C       -1.7137129377   -4.3640111722    2.1099066225
C       -2.1568523914   -3.0414175514    2.2949259496
C        1.4740279099   -0.6565091255    3.8779540664
C        0.6641752122   -0.5463310133    4.9421104181
O       -1.3511721310   -1.3237009116    6.5089097383
O        0.6688973954   -2.6939412477    6.6138854512
S       -0.2262923074   -1.8990897253    5.7558808065
Cl      -2.2032325271   -5.2979187195    0.7129280828
Cl      -3.2218395133   -2.2723398829    1.1379314264
H        3.4427935949   -5.0593548100    1.4959977369
H        3.4005612162   -4.9057390627    3.9763179723
H        2.6366436418   -3.1481579724    0.1313618786
H        2.5353165297   -2.8910000679    5.0791593774
H        1.7493941868   -1.1251283322    1.2282332888
H        0.2333506672   -4.6767825656    4.8958364535
H       -0.5242313770   -5.9589286795    2.9231907365
H       -2.0738396409   -1.3040319594    3.5526733423
H        1.6132524821    0.2638699538    3.3200437651
H        0.3641336377    0.4314062507    5.2873024419
29   

C        3.1255591044   -4.0065502735    1.7534272811
C        2.8041305508   -4.1371718020    3.1050997496
C        2.9411392975   -2.7785352986    1.1170310334
C        2.2771234725   -3.0503917830    3.8117232414
C        2.4175916309   -1.6924691075    1.8268919434
C       -0.6541859003   -4.3299472232    4.4362231554
C       -1.0991235114   -5.1338984669    3.3850427445
C       -1.5797254750   -2.3991464246    3.3276893074
C        2.0358168978   -1.8186730847    3.1748676121
C       -0.8785235944   -2.9488930215    4.4103759049
C       -1.7777030494   -4.5814972433    2.2925072576
C       -2.0240756589   -3.1965120581    2.2653427820
C        1.4875024921   -0.6491378751    3.8708062028
C        0.6529315345   -0.5596063127    4.9213517992
O       -1.3938468226   -1.2757062323    6.4729351204
O        0.6101364980   -2.6412170669    6.6713402102
S       -0.2613576077   -1.8827707426    5.7578474743
Cl      -2.3047632820   -5.6223704907    0.9878048907
Cl      -2.8690330993   -2.4522562012    0.9250156545
H        3.5291314572   -4.8501859015    1.2045915157
H        2.9735678077   -5.0795804182    3.6135071897
H        3.2022618322   -2.6668152903    0.0706406656
H        2.0946606641   -3.1821759342    4.8682277469
H        2.2826632565   -0.7494269273    1.3089496542
H       -0.1261092997   -4.7787218332    5.2739699293
H       -0.9152335064   -6.2013738775    3.4107437555
H       -1.7787595718   -1.3324285525    3.2970499680
H        1.6939710862    0.3030853649    3.3927736826
H        0.3738832833    0.4194448059    5.2807651496
29   

C        3.3975508623   -3.9195009348    1.7289430687
C        2.8524424022   -4.1378214731    2.9941343282
C        3.3261640118   -2.6485351200    1.1597348218
C        2.2226000431   -3.0939809021    3.6813657899
C        2.6979744361   -1.6057951355    1.8489703585
C       -0.7661004115   -4.3616512024    4.5093604356
C       -1.2955743785   -5.1860497649    3.5143144683
C       -1.7060026074   -2.4422976695    3.3928879656
C        2.1088345871   -1.8098534557    3.1117901053
C       -0.9559308833   -2.9762259803    4.4508193111
C       -2.0264845922   -4.6503952067    2.4473042780
C       -2.2365840114   -3.2605787742    2.3875962815
C        1.4424836690   -0.6768155944    3.7569882841
C        0.6016603581   -0.5815683806    4.8046188615
O       -1.3356419941   -1.2602447815    6.5039300763
O        0.6764846647   -2.6235889144    6.6065845452
S       -0.2500302366   -1.8839839767    5.7328900491
Cl      -2.6647008486   -5.7178450711    1.2156460560
Cl      -3.1458918427   -2.5365069680    1.0785289787
H        3.8823517375   -4.7299727624    1.1960826105
H        2.9254896095   -5.1176009053    3.4524051765
H        3.7558505523   -2.4694431985    0.1804920870
H        1.8644440914   -3.3128730585    4.6731826443
H        2.6538523240   -0.6301906826    1.3777364868
H       -0.2040135563   -4.7989612630    5.3310180267
H       -1.1405708630   -6.2572726368    3.5654973976
H       -1.8808980548   -1.3722399269    3.3383722071
H        1.6338333811    0.2776371701    3.2771870673
H        0.2806100369    0.4018449841    5.1137785858
29   

C        2.8481930246   -2.1790770533    0.3937778572
C        1.4895606626   -2.1371235347    0.7035479881
C        3.7855955235   -1.8679709949    1.3771377654
C        1.0691152271   -1.7926639028    1.9932226473
C        3.3627251524   -1.5232003652    2.6653205508
C       -0.7595671518   -4.1236169659    5.3512536358
C       -0.7132564982   -5.4991740421    5.1146741087
C       -1.5420907972   -3.7805521248    3.0969099968
C        1.9959776804   -1.4836688375    3.0097179211
C       -1.1582950809   -3.2464375707    4.3364045013
C       -1.0697277802   -6.0288503696    3.8690499783
C       -1.4933210703   -5.1581861751    2.8483034091
C        1.6517682300   -1.1550317751    4.3938911743
C        0.5039679391   -1.0449878674    5.0926639046
O       -1.6494197262   -0.7101652784    3.4438293248
O       -2.0577833684   -1.1698814276    5.8038924662
S       -1.2036750770   -1.4454892919    4.6386805986
Cl      -0.9873586187   -7.7581645502    3.6109006360
Cl      -1.9596720609   -5.7658267609    1.2743921260
H        3.1722589505   -2.4479141410   -0.6055064473
H        0.7541340994   -2.3681147153   -0.0590094212
H        4.8439327561   -1.8956930707    1.1432306577
H        0.0084465939   -1.7604238771    2.1581148691
H        4.1198786891   -1.2929414652    3.4065231730
H       -0.4848928040   -3.7367463752    6.3288329667
H       -0.3981567129   -6.1707593275    5.9047707779
H       -1.8882373524   -3.1209138673    2.3060553440
H        2.5186135318   -0.9114435918    4.9994858936
H        0.5683881937   -0.7100852972    6.1169482611
29   

C        2.5877013252   -2.6256817154    0.6371662824
C        1.2622069838   -2.2703725885    0.8862115023
C        3.5541210873   -2.4069993275    1.6185534858
C        0.9003021654   -1.7157603927    2.1189710360
C        3.1901280949   -1.8521507143    2.8502914010
C       -0.4615381954   -4.0458462250    5.3609695590
C       -0.2457173135   -5.3930395080    5.0625206239
C       -1.4023989854   -3.7299941890    3.1639561245
C        1.8521548331   -1.5215584822    3.1399369982
C       -1.0265103724   -3.1947996274    4.4051229345
C       -0.5940806924   -5.9197699534    3.8130897800
C       -1.1839017649   -5.0776656622    2.8528887870
C        1.5406387527   -0.9859316772    4.4666903558
C        0.3870297600   -0.8071182444    5.1389706228
O       -1.8841686700   -0.7188403033    3.6323274640
O       -2.0890837530   -1.2846963993    5.9929234564
S       -1.2780570666   -1.4240631622    4.7738908849
Cl      -0.2929873307   -7.6104174211    3.4744376824
Cl      -1.6440137328   -5.6823161192    1.2760274340
H        2.8659283893   -3.0591417576   -0.3170917304
H        0.5103748203   -2.4149725769    0.1183488739
H        4.5880746339   -2.6714254267    1.4273145035
H       -0.1259867444   -1.4113728857    2.2331649061
H        3.9628505124   -1.7014969579    3.5958722001
H       -0.1857694950   -3.6596761107    6.3384399261
H        0.1992116884   -6.0441461365    5.8057666838
H       -1.8684784269   -3.0917300749    2.4184943751
H        2.4157811723   -0.6986724920    5.0405093728
H        0.4288670355   -0.3258960593    6.1044815934
29   

C        2.4036326591   -2.7934408753    0.7206460874
C        1.1548549877   -2.1979198819    0.9016008218
C        3.3525154466   -2.7281316644    1.7417421748
C        0.8467038009   -1.5625741660    2.1097194451
C        3.0424636268   -2.0898204510    2.9477692451
C       -0.3773608161   -4.0132687608    5.3497686127
C       -0.0743499677   -5.3387128577    5.0296030901
C       -1.2370865606   -3.6930256810    3.1206621488
C        1.7694638624   -1.5350269365    3.1722012215
C       -0.9449313816   -3.1701517147    4.3888833194
C       -0.3365855328   -5.8506345487    3.7530018241
C       -0.9301661040   -5.0175662970    2.7874835749
C        1.4908088535   -0.8916382573    4.4613580667
C        0.3362431087   -0.7085524134    5.1266550653
O       -1.9484913066   -0.7428633502    3.6451060938
O       -2.0997389941   -1.3349121216    6.0047252528
S       -1.2943792562   -1.4207229550    4.7768209106
Cl       0.0766118675   -7.5114976096    3.3866956399
Cl      -1.2824299270   -5.6029466829    1.1759236631
H        2.6394211329   -3.2916260609   -0.2132340568
H        0.4244115802   -2.2180560281    0.1004564034
H        4.3299131221   -3.1756737208    1.6006523750
H       -0.1088398532   -1.0647883709    2.1841383125
H        3.7958996077   -2.0557652276    3.7267467484
H       -0.1653320705   -3.6364776017    6.3466201681
H        0.3735998572   -5.9835959460    5.7763339218
H       -1.7001787751   -3.0597880915    2.3692415437
H        2.3723092605   -0.6079321530    5.0271984674
H        0.3578456622   -0.1822465315    6.0689344740
29   

C        2.1917345669   -2.8708273265    0.7684288254
C        1.1010081767   -2.0071542380    0.8853410630
C        3.0567011269   -3.0418849285    1.8513084371
C        0.8578452998   -1.3431125841    2.0927729486
C        2.8155169101   -2.3696256986    3.0548183930
C       -0.3529782759   -3.9755303464    5.3421321317
C        0.0348434825   -5.2791510519    5.0226734921
C       -1.0640088473   -3.6512345226    3.0619463893
C        1.6814244415   -1.5556637811    3.2119421285
C       -0.8871050171   -3.1400157205    4.3557364274
C       -0.1094524375   -5.7766294535    3.7216533611
C       -0.6727283975   -4.9535066850    2.7300692012
C        1.4503236379   -0.8541780291    4.4870516315
C        0.2923686732   -0.6566461929    5.1360410143
O       -1.9308782160   -0.7429136460    3.5718764028
O       -2.1611176033   -1.3401066069    5.9300172396
S       -1.3095090899   -1.4034709255    4.7321190944
Cl       0.4144710285   -7.4061963138    3.3565143494
Cl      -0.8777487584   -5.5211346942    1.0869527401
H        2.3732414137   -3.3953968798   -0.1631242744
H        0.4434450635   -1.8456528790    0.0383749558
H        3.9141928250   -3.6989041443    1.7594285593
H        0.0289542902   -0.6470895210    2.1410186499
H        3.4987612144   -2.5150503293    3.8839627592
H       -0.2268620765   -3.6071587465    6.3565347984
H        0.4603993050   -5.9169383913    5.7883184223
H       -1.4940057150   -3.0218354646    2.2880417600
H        2.3372872350   -0.6259346867    5.0691402931
H        0.2909619815   -0.1283665096    6.0772962899
29   

C        2.1138154033   -2.8885298075    0.7945887135
C        1.1468620345   -1.8820987069    0.8508002336
C        2.8740017168   -3.1818044645    1.9293253416
C        0.9200584754   -1.1942870457    2.0480045003
C        2.6506445388   -2.4848643605    3.1222262474
C       -0.3407967120   -3.9618137736    5.3475525296
C        0.0762723999   -5.2600923546    5.0423150265
C       -0.9561695046   -3.6406919557    3.0389993141
C        1.6295380704   -1.5256280174    3.2132946678
C       -0.8429670406   -3.1309237103    4.3406265917
C       -0.0083780164   -5.7570772546    3.7357493388
C       -0.5389136160   -4.9387273844    2.7225383548
C        1.4232965841   -0.7666093958    4.4665115469
C        0.2768085410   -0.6301812098    5.1448541026
O       -1.8820161659   -0.7504664541    3.5084147764
O       -2.1944879621   -1.3388321470    5.8637992406
S       -1.3009015463   -1.3985940899    4.6965476556
Cl       0.5489149968   -7.3798935566    3.3903686363
Cl      -0.6715652870   -5.5072715610    1.0722450902
H        2.2807405069   -3.4319770391   -0.1288378748
H        0.5711854221   -1.6313698888   -0.0332517377
H        3.6360221768   -3.9517118824    1.8853391365
H        0.1798400767   -0.4008365250    2.0671312303
H        3.2524545242   -2.7204516723    3.9926632169
H       -0.2613907164   -3.5937406725    6.3667637526
H        0.4776313714   -5.8943688826    5.8237971915
H       -1.3561705040   -3.0129154455    2.2478337651
H        2.3138840612   -0.5233396942    5.0368113359
H        0.2624294549   -0.1145327254    6.0928537486
29   

C        2.0852371500   -2.9231095228    0.8417673295
C        1.2108385312   -1.8335421431    0.8243165427
C        2.7392097095   -3.2670226765    2.0275569108
C        0.9729124730   -1.1076883991    1.9966991920
C        2.5032660598   -2.5334962978    3.1957843459
C       -0.3020349240   -3.9943978469    5.3786963395
C        0.1238575057   -5.2861217323    5.0571209100
C       -0.9076934853   -3.6449708993    3.0712807484
C        1.5741603006   -1.4811642216    3.2071219398
C       -0.8053286406   -3.1533153471    4.3809642887
C        0.0456100288   -5.7663979540    3.7437464325
C       -0.4848839854   -4.9372714707    2.7394450792
C        1.3733435136   -0.6667190348    4.4319323276
C        0.2687478577   -0.6225120063    5.1838498702
O       -1.8953968328   -0.7911710065    3.5758238020
O       -2.1740835168   -1.3974333887    5.9330330661
S       -1.2915792584   -1.4329997744    4.7562543816
Cl       0.6102481723   -7.3823590454    3.3788537363
Cl      -0.6124802284   -5.4860950490    1.0819978081
H        2.2612632521   -3.4944926654   -0.0629265639
H        0.7147043846   -1.5494141269   -0.0970348129
H        3.4282873845   -4.1038805625    2.0421468289
H        0.2965024949   -0.2586867115    1.9702740369
H        3.0231702670   -2.8061568176    4.1071975326
H       -0.2310280269   -3.6403176821    6.4034823129
H        0.5250747588   -5.9292407582    5.8314192180
H       -1.3060346426   -3.0076603006    2.2867610594
H        2.2721581084   -0.3439700343    4.9472463292
H        0.2657527160   -0.1090705327    6.1330721797
29   

C        2.0672168526   -3.0623520275    0.8886315802
C        1.2943698086   -1.9055897434    0.7552564255
C        2.5920033931   -3.4053675314    2.1374406603
C        1.0360326527   -1.1028048521    1.8720927091
C        2.3324156336   -2.5989865847    3.2512539691
C       -0.2063810578   -4.0686133738    5.3625755835
C        0.2123381906   -5.3460293969    4.9795213297
C       -0.9245344610   -3.6519934443    3.0983897005
C        1.5203713477   -1.4595771127    3.1377556883
C       -0.7630134214   -3.2015329410    4.4170620725
C        0.0725077028   -5.7859059550    3.6568770352
C       -0.5118244528   -4.9303637122    2.7060865974
C        1.2976309745   -0.5725293548    4.3104135501
C        0.2614730286   -0.5972849427    5.1532333188
O       -2.0319263095   -0.8869937800    3.7721290068
O       -2.0387634115   -1.5321101027    6.1305323085
S       -1.2762371465   -1.5097592641    4.8721653791
Cl       0.6272058029   -7.3856121775    3.2141436527
Cl      -0.7206555297   -5.4297345368    1.0411529617
H        2.2614140231   -3.6898753982    0.0258039211
H        0.8938038198   -1.6294215869   -0.2137606569
H        3.1975346148   -4.2983973413    2.2433315996
H        0.4375511166   -0.2043588465    1.7592596393
H        2.7488865373   -2.8718320370    4.2142908339
H       -0.0942447640   -3.7476869658    6.3946911840
H        0.6526687392   -6.0108345778    5.7131523231
H       -1.3666037139   -2.9939875398    2.3552753075
H        2.1760030153   -0.0507885370    4.6764536184
H        0.2769404655   -0.0151408160    6.0618436437
29   

C        2.9612490838   -3.5948538449    2.1888688147
C        1.9115836840   -3.1004230437    1.4090899995
C        3.2259923732   -3.0252965835    3.4377095933
C        1.1432099450   -2.0243885056    1.8682491589
C        2.4509294718   -1.9549976209    3.8980583381
C        0.1773668570   -4.3026991203    4.4512204056
C        0.0856961544   -5.3191497511    3.4995301596
C       -1.7983067749   -3.2774268294    3.5257978217
C        1.4311536507   -1.4136391991    3.0994111207
C       -0.7549614406   -3.2598392233    4.4619366128
C       -0.9350054913   -5.3192077893    2.5427191594
C       -1.8932530045   -4.2885595342    2.5598657633
C        0.5522199119   -0.3315478905    3.6110391879
C       -0.3455938780   -0.4263983433    4.5971876953
O       -1.8308327839   -1.7078840171    6.4087341695
O        0.5842801838   -2.0855664541    6.5215252968
S       -0.5841174810   -1.8814463465    5.6474649966
Cl      -0.9923299011   -6.5930232524    1.3439970333
Cl      -3.1905295401   -4.2398815199    1.3858895061
H        3.5617723998   -4.4234194444    1.8302885786
H        1.6883503986   -3.5540368473    0.4499290736
H        4.0294062019   -3.4127521368    4.0542553629
H        0.3198412344   -1.6635089731    1.2619990609
H        2.6524745802   -1.5315573563    4.8773690525
H        0.9894770970   -4.3113828918    5.1737668796
H        0.8236120383   -6.1122650359    3.4919832803
H       -2.5418230343   -2.4861977915    3.5313101852
H        0.3798158510    0.5011590622    2.9368406952
H       -1.0281595312    0.3852615783    4.7976592749
29   

C        3.0099712530   -3.5777306377    2.1562340049
C        2.0268986974   -3.0472300540    1.3165566392
C        3.1679350848   -3.0674562523    3.4473769463
C        1.2137728298   -1.9989771614    1.7625588275
C        2.3464811019   -2.0270951389    3.8953860748
C        0.1699538882   -4.3228546470    4.5120227891
C        0.0713761602   -5.3385006096    3.5598728441
C       -1.7982084726   -3.2844748026    3.5858481095
C        1.3783338008   -1.4600618123    3.0493728685
C       -0.7530887688   -3.2717098909    4.5201676773
C       -0.9500676376   -5.3322896539    2.6036910707
C       -1.9021340472   -4.2962099493    2.6219671344
C        0.4625115355   -0.3997601923    3.5265953024
C       -0.3440239897   -0.4472087316    4.5943177991
O       -1.8001235123   -1.6883698733    6.4575147176
O        0.6145212897   -2.0682740568    6.5498183288
S       -0.5627480264   -1.8775706632    5.6849957652
Cl      -1.0163422444   -6.6052514752    1.4044674593
Cl      -3.2012569259   -4.2397790151    1.4502753044
H        3.6459907045   -4.3839454773    1.8080352690
H        1.8920565291   -3.4496520215    0.3188442503
H        3.9275095667   -3.4748148171    4.1052913531
H        0.4464689175   -1.6080724619    1.1036687346
H        2.4846320601   -1.6407651881    4.9000992112
H        0.9826525836   -4.3365364427    5.2337335377
H        0.8044062972   -6.1361154449    3.5507817019
H       -2.5347250399   -2.4867277643    3.5891879966
H        0.2144148636    0.3787920572    2.8124590251
H       -1.0214278669    0.3676522300    4.7995395929
29   

C        3.1020915773   -3.4870411348    2.0539556517
C        2.2161885782   -2.8529988528    1.1797400026
C        3.1265454438   -3.1200417131    3.4012060903
C        1.3589735640   -1.8526162543    1.6520216687
C        2.2621854564   -2.1265749321    3.8740125798
C        0.1178475128   -4.3498121609    4.5827447857
C        0.0034264800   -5.3845047995    3.6528197872
C       -1.8247009296   -3.2941118404    3.6226882804
C        1.3698433411   -1.4732091673    3.0057975980
C       -0.7841071824   -3.2804814241    4.5620104813
C       -1.0149830077   -5.3810504309    2.6930783519
C       -1.9460259322   -4.3260886003    2.6830295944
C        0.4228466449   -0.4465999240    3.4780043970
C       -0.3341251942   -0.4599271462    4.5854622072
O       -1.8266429351   -1.6447115283    6.4541000558
O        0.5763445282   -2.0607357015    6.5896470446
S       -0.5826546551   -1.8672819286    5.7015161081
Cl      -1.1057146736   -6.6827570666    1.5266504388
Cl      -3.2421171513   -4.2728700381    1.5077107746
H        3.7718165897   -4.2568916433    1.6870880857
H        2.1925692595   -3.1366296586    0.1335303884
H        3.8212614394   -3.5980324889    4.0828163142
H        0.6727003084   -1.3780604827    0.9595163673
H        2.3246177191   -1.8392347761    4.9169464941
H        0.9246734139   -4.3653058238    5.3109653080
H        0.7192928266   -6.1975740458    3.6654621384
H       -2.5460402412   -2.4827689416    3.6048805558
H        0.1592084882    0.3232086404    2.7599185857
H       -0.9949440970    0.3685167505    4.7908092384
29   

C        3.1489149284   -3.2706223627    1.7958111656
C        2.4235811672   -2.4161744935    0.9636852054
C        2.9838662993   -3.1915896427    3.1795670682
C        1.5313385569   -1.4898784386    1.5150425883
C        2.0887636899   -2.2679412900    3.7301776708
C       -0.0124418658   -4.4303327564    4.8715555829
C       -0.1129117427   -5.5477705968    4.0405812340
C       -1.7363822378   -3.3409076363    3.5854455242
C        1.3408195966   -1.4058988107    2.9079785998
C       -0.8146052776   -3.3069122396    4.6414515224
C       -1.0152725260   -5.5716112557    2.9708652775
C       -1.8406368901   -4.4551385372    2.7430701710
C        0.3671113208   -0.4334560458    3.4188229611
C       -0.4028945394   -0.4581983779    4.5205270722
O       -1.9161045011   -1.5790705335    6.4080625208
O        0.4806161273   -1.9487780598    6.6179046513
S       -0.6557754081   -1.8203994289    5.6898261348
Cl      -1.0981621284   -6.9858599046    1.9429914653
Cl      -2.9888834843   -4.4313495271    1.4219706760
H        3.8434459487   -3.9863400064    1.3701456630
H        2.5518393576   -2.4713688167   -0.1115200481
H        3.5593234251   -3.8386164967    3.8319279593
H        0.9750852559   -0.8415425742    0.8471862426
H        2.0282131630   -2.2069237428    4.8072913819
H        0.6979101450   -4.4310654670    5.6945868297
H        0.5183936994   -6.4095803209    4.2213901309
H       -2.3804105710   -2.4865227960    3.4017143986
H        0.1366355412    0.3820189304    2.7407533500
H       -1.0613524013    0.3751758655    4.7140710012
29   

C        3.4165764402   -3.0527341254    1.7079080565
C        2.7719005853   -2.1002180090    0.9183069398
C        3.0709006648   -3.1807308894    3.0535576758
C        1.7791146221   -1.2848498101    1.4726140760
C        2.0765657940   -2.3667785531    3.6074142007
C       -0.0829411235   -4.4901668649    4.9432184389
C       -0.2689478517   -5.6464548727    4.1826254799
C       -1.8599420914   -3.4191481349    3.7150564540
C        1.4007154955   -1.4117926201    2.8253416686
C       -0.8694395225   -3.3569780611    4.7058345741
C       -1.2432086957   -5.7005083475    3.1788829832
C       -2.0515903062   -4.5731285717    2.9447452076
C        0.3485800079   -0.5186111927    3.3172241204
C       -0.4185660792   -0.5318434065    4.4236353826
O       -1.8376708529   -1.5295775055    6.4455563279
O        0.5602293960   -1.9354947718    6.5443920450
S       -0.6223533107   -1.8279944576    5.6733670189
Cl      -1.4372850903   -7.1661143108    2.2418040177
Cl      -3.2893322387   -4.5863665271    1.7067624787
H        4.1889621460   -3.6830524876    1.2813241239
H        3.0421152018   -1.9915066363   -0.1260797720
H        3.5842427075   -3.9036655512    3.6774459563
H        1.2952414084   -0.5546250886    0.8335159778
H        1.8894140100   -2.4745500509    4.6627529529
H        0.6769976980   -4.4717587748    5.7205617683
H        0.3483552496   -6.5172351129    4.3692223064
H       -2.4945315598   -2.5580217320    3.5292650860
H        0.1068950761    0.2959001104    2.6419621464
H       -1.1071211743    0.2850831136    4.5792148732
29   

C        2.4846405688   -3.0831061226    0.2084209602
C        3.2913587016   -2.1597624565    0.8736648403
C        1.1599818112   -3.2564073163    0.6103743864
C        2.7752897848   -1.4186723338    1.9424313075
C        0.6431673504   -2.5156531201    1.6791844652
C       -0.4335354311   -3.5164721573    5.7852292368
C       -0.0006790960   -4.8026949917    6.1153942480
C       -1.3852281841   -4.3809951444    3.7457608910
C        1.4434006004   -1.5927882359    2.3768946470
C       -1.1165323910   -3.2890557330    4.5851608230
C       -0.2454848583   -5.8867572133    5.2642902227
C       -0.9504399373   -5.6733404952    4.0657051122
C        1.0039482807   -0.7582949509    3.4965637351
C       -0.1472019334   -0.6230432418    4.1848405518
O       -2.2959269901   -1.5866464047    2.8051433872
O       -2.5725927707   -1.0945368518    5.1772092582
S       -1.6679878899   -1.6060329672    4.1365455473
Cl       0.3239963705   -7.4806385346    5.7105899183
Cl      -1.2919407110   -6.9929370948    2.9675278006
H        2.8812612840   -3.6571886365   -0.6216392158
H        4.3189834582   -2.0153495858    0.5595811973
H        0.5236902932   -3.9609228425    0.0863948175
H        3.4286429596   -0.7072453898    2.4350551370
H       -0.3930197997   -2.6716072903    1.9169133664
H       -0.2364872438   -2.6921895762    6.4651458166
H        0.5330016224   -4.9692568506    7.0438114305
H       -1.9417554187   -4.2314621551    2.8245138493
H        1.7636238229   -0.0625512412    3.8377063758
H       -0.1995144484    0.1481225610    4.9385530640
