30

C      2.25323    3.26011    2.75776
C      1.85316    2.03322    2.23230
C      1.75029    4.46550    2.26272
C      0.40327    3.21124    0.66801
C      0.92269    2.02093    1.17926
C      0.81893    4.43740    1.21323
C     -0.56591    0.52565   -0.13370
C      0.75757   -1.48828   -0.13554
C      1.26834   -0.48145    0.92010
C     -0.66438   -0.99362   -0.34599
C      0.63025    6.82459    1.14852
N      0.51870    0.75999    0.63424
N     -1.28942   -1.14798   -1.71053
O     -1.38401    1.27978   -0.66403
O      0.25882    5.53613    0.64636
H      2.96920    3.27907    3.57408
H      2.25055    1.11736    2.65391
H      2.08302    5.40138    2.69511
H     -0.31989    3.22199   -0.13610
H      1.34361   -1.37857   -1.05486
H      0.82966   -2.52238    0.20462
H      1.06335   -0.82766    1.93801
H      2.33913   -0.29908    0.82280
H     -1.37608   -1.41466    0.36962
H      0.06591    7.54395    0.55587
H      1.70315    7.00425    1.01764
H      0.35946    6.92852    2.20503
H     -0.58810   -1.13166   -2.46101
H     -1.88616   -0.29427   -1.82039
H     -1.85699   -1.99526   -1.81752
