41

C      2.73285   -2.56230   -7.60151
C      3.45721    0.98197   -7.49318
C      3.60294   -3.07905   -6.64579
C      2.51444    0.88160   -8.46748
C      3.65316   -0.36167   -6.98829
C      2.79021   -1.17509   -7.74275
C      4.46860   -1.00478   -6.01885
C      0.90658   -2.97547   -3.90286
C      0.61472   -2.97552   -2.39620
C      1.23041   -1.51397   -4.20901
C      1.70308   -2.05757   -1.84952
C      6.38364   -1.04247   -4.49647
C      3.41682    0.74679   -3.92175
C      4.83462    0.90880   -4.51574
C      3.29815   -0.51874   -3.07228
N      4.41678   -2.33654   -5.86241
N      5.33520   -0.29235   -5.19150
N      1.86260   -0.96660   -2.91148
O      2.08720   -0.42036   -8.63480
H      2.09253   -3.19203   -8.20890
H      3.96517    1.89215   -7.20893
H      3.65163   -4.15368   -6.48285
H      2.05968    1.60516   -9.12936
H      1.77036   -3.60603   -4.13175
H      0.06607   -3.32468   -4.50508
H     -0.38065   -2.56965   -2.18765
H      0.67403   -3.96822   -1.94587
H      1.93271   -1.37836   -5.02735
H      0.33404   -0.92301   -4.40237
H      1.48848   -1.58510   -0.89012
H      2.66328   -2.57259   -1.78916
H      7.16895   -0.34388   -4.19756
H      6.81017   -1.78091   -5.17430
H      6.02807   -1.57891   -3.60458
H      2.69915    0.71248   -4.74553
H      3.17595    1.63522   -3.32639
H      4.82522    1.77313   -5.18621
H      5.54399    1.14983   -3.72100
H      3.80967   -1.36493   -3.53148
H      3.69942   -0.37022   -2.06643
H      1.31708   -0.15417   -2.61518
