54

C     -3.07203   -1.11841   -1.14168
C     -1.95889   -0.20907   -0.97771
C     -0.95931   -0.76091   -0.22243
C     -4.30979   -0.89502   -1.87411
C     -2.88002   -2.33089   -0.50800
C     -4.97181   -3.24112   -1.28227
C      1.84690    1.28756   -1.22202
C     -7.37895   -0.65375   -2.01487
C     -7.75629   -2.07708   -1.67359
C      2.50349   -0.18720   -2.91988
C      1.77468   -0.98395   -1.81801
C     -6.51715   -1.79855   -2.48710
C     -6.47246   -2.16253   -3.95597
C     -1.49768    1.11535   -3.08356
C     -5.52682   -3.80975    3.20963
C     -1.87370    1.16548   -1.59217
C      0.37036   -0.15795    0.14944
C     -3.56004   -4.60880    0.19899
C     -3.83834   -4.44648    1.69073
N     -5.23825   -1.96681   -1.79970
N     -3.78005   -3.36817   -0.54972
N      2.78647    1.07651   -2.23378
N      1.20594    0.08200   -1.00984
O     -4.57457    0.11830   -2.51505
O     -5.72355   -4.19092   -1.44518
O      1.63407    2.34063   -0.63090
O     -5.19014   -4.06538    1.85473
S     -1.33944   -2.40468    0.29601
H     -7.93743   -0.11854   -2.77676
H     -6.98942   -0.02558   -1.22151
H     -7.61985   -2.41147   -0.65093
H     -8.58285   -2.55131   -2.19393
H      3.42023   -0.68196   -3.24986
H      1.84649   -0.04131   -3.78774
H      0.99644   -1.63836   -2.22131
H      2.47674   -1.59484   -1.23028
H     -5.74823   -1.53392   -4.48308
H     -7.45362   -2.01010   -4.41545
H     -6.19831   -3.21488   -4.07967
H     -0.53409    0.61482   -3.22224
H     -1.41649    2.12998   -3.48699
H     -2.25982    0.58131   -3.65627
H     -6.57879   -3.51792    3.22729
H     -4.91788   -2.99374    3.62675
H     -5.39131   -4.70606    3.83324
H     -2.84192    1.66166   -1.49030
H     -1.13275    1.76077   -1.05169
H      0.23304    0.81367    0.63207
H      0.89211   -0.80553    0.86957
H     -2.52769   -4.94183    0.04619
H     -4.23393   -5.35250   -0.22369
H     -3.17132   -3.69374    2.13754
H     -3.63436   -5.40917    2.18822
H      3.01578    1.89951   -2.77779
