45

C     -1.94773    5.96548    0.59601
C      0.37717    5.18273    0.57842
C     -2.22233    4.87480   -0.24733
C     -0.62744    6.08615    0.98998
C     -3.35673    4.29932   -0.91162
C     -7.15884    5.74821   -0.74747
C     -1.14279    4.02841   -0.60520
C     -6.86968    4.58394   -1.50564
C     -4.74343    4.76911   -0.89242
C     -9.13187    4.93761   -1.77150
C     -0.29338   -0.58120   -1.45882
C     -0.49556    0.69351    0.32060
C     -1.15637    0.66698   -1.09450
C     -8.62878    6.07670   -0.84966
C      0.03708   -0.71410    0.03298
C     -9.34260    5.99296    0.51274
C     -8.87822    7.43814   -1.52552
C     -0.97185    1.89762   -1.97235
N      0.13415    4.14434   -0.22149
N     -2.99214    3.21340   -1.60095
N     -6.21734    6.37771   -0.08706
N     -5.67110    4.06250   -1.60241
N     -4.96254    5.87207   -0.16042
N     -1.66333    3.05777   -1.42920
N     -8.03238    4.12601   -2.09372
O    -10.26617    4.75317   -2.16238
F     -0.25706    7.10398    1.80667
F      1.34695   -0.95970    0.35411
F     -0.70775   -1.69715    0.64805
H     -2.71802    6.65850    0.91440
H      1.39811    5.32981    0.92411
H     -0.79733   -1.43645   -1.91218
H      0.59987   -0.32365   -2.03464
H      0.31540    1.42222    0.38966
H     -1.15341    0.78214    1.18666
H     -2.21809    0.41649   -1.03404
H    -10.41899    6.12356    0.37412
H     -8.96376    6.77921    1.17093
H     -9.16944    5.02684    0.99664
H     -9.95046    7.58134   -1.68254
H     -8.37365    7.50241   -2.49444
H     -8.49552    8.23755   -0.88567
H     -1.36106    1.72074   -2.97837
H      0.08570    2.16439   -2.04555
H     -8.09704    3.30697   -2.68957
