25   
Generated by ForceBalance from scan.xyz: Frame 1 of 24
C        6.9604064930   -2.4560249021   -0.1492631254
C        6.2623438282   -2.0669316323    1.0008079539
C        6.5383034847   -1.9930360648   -1.3981497173
C        5.1547226557   -1.2232405154    0.8999949305
C        5.4264642370   -1.1477614017   -1.4937954544
C        4.7201096756   -0.7494509268   -0.3500723082
C        2.1644843274   -0.5231976915   -0.1285913974
C        3.6616307898    1.4584752286    0.3424265102
C        0.8949760465   -2.6320037877   -0.2017001951
C        3.5099419593    0.1581022070   -0.4637574352
N        2.1474154110   -1.8880203123   -0.1761594143
O        1.1552439644    0.1410932782    0.1064130708
H        7.8231791715   -3.1123275428   -0.0705352089
H        6.5815197721   -2.4241736062    1.9767015614
H        7.0726832788   -2.2870208657   -2.2980015689
H        4.6151747496   -0.9379434938    1.7995881998
H        5.1047841958   -0.7912090512   -2.4702824016
H        4.5495412915    2.0046128806    0.0105804284
H        3.7678079799    1.2526914539    1.4115934008
H        2.7782140910    2.0852752460    0.2085368551
H        1.0819408847   -3.6639339480    0.1056983643
H        0.4408424888   -2.6301320781   -1.2005242592
H        0.1924749149   -2.1708042195    0.4938647807
H        3.4007448884    0.4362795226   -1.5199320832
H        2.9943349732   -2.3607656654   -0.4636757302
25   
Generated by ForceBalance from scan.xyz: Frame 2 of 24
C        6.9727836467   -2.3739721453   -0.1619444183
C        6.2811082647   -1.9956512575    0.9956178282
C        6.5207034439   -1.9333055919   -1.4083610289
C        5.1495440926   -1.1834316304    0.9046668596
C        5.3844778045   -1.1199622204   -1.4938868750
C        4.6846088470   -0.7325230785   -0.3427390316
C        2.1425166714   -0.5302382698    0.0063863144
C        3.6383637450    1.4982017525    0.2741217612
C        0.8603854499   -2.6069233803   -0.3177824569
C        3.4546073492    0.1500774600   -0.4407079932
N        2.1141712260   -1.9007112415   -0.0698396110
O        1.1541108377    0.1341193709    0.3113056479
H        7.8540742446   -3.0060796810   -0.0908336607
H        6.6237444348   -2.3370895297    1.9691844857
H        7.0500037528   -2.2199914122   -2.3135635268
H        4.6142409904   -0.9055928294    1.8093453822
H        5.0391945111   -0.7797062461   -2.4681950418
H        4.4936432348    2.0337475829   -0.1483523166
H        3.8202546860    1.3555610761    1.3433674992
H        2.7386414412    2.1064775163    0.1649914354
H        0.9591876484   -3.6493391511   -0.0038113021
H        0.5808597808   -2.5749398060   -1.3788026781
H        0.0691645663   -2.1332695044    0.2638349467
H        3.2764094710    0.3576242673   -1.5041313395
H        2.9529035469   -2.3383211468   -0.4327443133
25   
Generated by ForceBalance from scan.xyz: Frame 3 of 24
C        7.0083019593   -2.3324758418   -0.1627602664
C        6.3313583570   -1.9473559557    1.0011691543
C        6.5231102309   -1.9251417984   -1.4081332817
C        5.1813857733   -1.1606470839    0.9173974771
C        5.3683621212   -1.1377269040   -1.4867094092
C        4.6836879044   -0.7437029057   -0.3289028575
C        2.1672420381   -0.5552756022    0.1485577537
C        3.6456037277    1.5095280189    0.2008274711
C        0.8532807672   -2.5471145522   -0.4400426960
C        3.4371513505    0.1175936706   -0.4138389993
N        2.0988159700   -1.9297657312    0.0200298151
O        1.2178414601    0.1112055834    0.5496960181
H        7.9037658540   -2.9449718610   -0.0974829549
H        6.6994746113   -2.2638496337    1.9738248441
H        7.0408706922   -2.2181751444   -2.3179534839
H        4.6575084969   -0.8759472543    1.8268845570
H        4.9972724160   -0.8228977945   -2.4601486991
H        4.4667361296    2.0247183204   -0.3063441002
H        3.8948161962    1.4348116873    1.2633157352
H        2.7337840514    2.1029373963    0.1111459187
H        0.8740071115   -3.6184037389   -0.2236348252
H        0.7023997201   -2.4003454326   -1.5177621453
H        0.0173128352   -2.0962808735    0.0953733908
H        3.1928275990    0.2484798071   -1.4768413853
H        2.9356991030   -2.3370407925   -0.3845881479
25   
Generated by ForceBalance from scan.xyz: Frame 4 of 24
C        7.0494780789   -2.3505562800   -0.1752444567
C        6.3970020018   -1.9480554747    0.9965278910
C        6.5272612276   -1.9815618511   -1.4178110083
C        5.2331043530   -1.1807146029    0.9235834080
C        5.3587153462   -1.2141415074   -1.4854276208
C        4.6984633623   -0.8028285399   -0.3196224847
C        2.2176149206   -0.6103717969    0.2874961754
C        3.6705679755    1.4715004124    0.1232385234
C        0.8825532089   -2.4989321185   -0.5239270350
C        3.4399235236    0.0429100104   -0.3889050363
N        2.0926705105   -1.9894248869    0.1351848794
O        1.3211311536    0.0680723238    0.7736173874
H        7.9555931002   -2.9479934670   -0.1184176151
H        6.7945566267   -2.2355455011    1.9665644140
H        7.0264467348   -2.2894271711   -2.3331019005
H        4.7286010085   -0.8796379781    1.8390162678
H        4.9575902688   -0.9289639369   -2.4561067129
H        4.4660435004    1.9529307401   -0.4533327594
H        3.9683545163    1.4643226768    1.1757026617
H        2.7544231027    2.0591882540    0.0385598897
H        0.8361522496   -3.5846786484   -0.4067170177
H        0.8650881771   -2.2527751973   -1.5946267661
H        0.0050860948   -2.0601792491   -0.0472854099
H        3.1313962296    0.0992421403   -1.4422433538
H        2.9319264361   -2.3999413055   -0.2647350820
25   
Generated by ForceBalance from scan.xyz: Frame 5 of 24
C        7.0672733965   -2.3603234904   -0.1809476459
C        6.4465358319   -1.9229531329    0.9953421058
C        6.5039568175   -2.0375998009   -1.4185855171
C        5.2742234485   -1.1673005533    0.9317548323
C        5.3271824666   -1.2824202103   -1.4773635613
C        4.6991364225   -0.8366813155   -0.3065910142
C        2.2556782518   -0.6443120666    0.4014587446
C        3.6672151947    1.4488081861    0.0685290883
C        0.9379996394   -2.4075138812   -0.6475394484
C        3.4304061694   -0.0042785389   -0.3632380415
N        2.0689480348   -2.0266433129    0.2170955151
O        1.4218964505    0.0374757542    0.9779864761
H        7.9798041756   -2.9485757098   -0.1316101617
H        6.8753266479   -2.1740387345    1.9621289847
H        6.9779971143   -2.3727796290   -2.3376117215
H        4.7956917937   -0.8373986202    1.8513932469
H        4.8943375621   -1.0341234773   -2.4445370251
H        4.4407773571    1.9046577748   -0.5566682320
H        3.9975365799    1.4953132716    1.1100723256
H        2.7457913210    2.0286788663   -0.0151212857
H        0.8370979577   -3.4957763197   -0.6438220434
H        1.0702271232   -2.0657463181   -1.6845174387
H        0.0187843336   -1.9751773676   -0.2486070477
H        3.0755396763   -0.0063973160   -1.4038729730
H        2.9224973540   -2.4447232160   -0.1473459807
25   
Generated by ForceBalance from scan.xyz: Frame 6 of 24
C        7.3131558918   -2.1672534789   -0.1311880161
C        6.6967168795   -1.5897870456    0.9846393952
C        6.6759134870   -2.1146838609   -1.3744181345
C        5.4559385704   -0.9607017402    0.8577165563
C        5.4322754101   -1.4869458984   -1.4981260802
C        4.8130714057   -0.8994168046   -0.3878852593
C        2.4680202863   -0.8994131850    0.3624241143
C        3.5679565123    1.3128535447   -0.2191431602
C        0.6724492967   -1.8658063350   -0.9759175210
C        3.4735806995   -0.1854980231   -0.5394871513
N        1.9108899770   -2.0820052550   -0.1961441224
O        2.3172603943   -0.6064450707    1.5398469717
H        8.2787950650   -2.6563407649   -0.0313193831
H        7.1822038780   -1.6322851711    1.9564863968
H        7.1440949953   -2.5634079967   -2.2470031093
H        4.9756788881   -0.5281076391    1.7311758850
H        4.9381847609   -1.4553642499   -2.4666279846
H        4.3254075158    1.7863619234   -0.8504903269
H        3.8396831761    1.4690641133    0.8269121207
H        2.6073436421    1.8092676038   -0.3929691262
H        0.3310015523   -2.8261338730   -1.3705060030
H        0.8788626915   -1.2106574590   -1.8278341810
H       -0.1309012921   -1.4161323636   -0.3773667763
H        3.1509688146   -0.3185981197   -1.5774648893
H        1.6576723636   -2.6576296231    0.6088976579
25   
Generated by ForceBalance from scan.xyz: Frame 7 of 24
C        7.2993428956   -2.1591317338   -0.1620239960
C        6.7054946718   -1.5880169803    0.9693925411
C        6.6333115951   -2.1075457606   -1.3898892273
C        5.4582443481   -0.9666170818    0.8732557754
C        5.3830330984   -1.4871850547   -1.4823496839
C        4.7849786106   -0.9073307684   -0.3564124096
C        2.4562740598   -0.8922568017    0.4699628451
C        3.5391026601    1.3024919574   -0.1866889836
C        0.7536585825   -1.8672328586   -1.0331165487
C        3.4385723918   -0.2019390815   -0.4795701594
N        1.8296566772   -2.0422651683   -0.0406112338
O        2.3902580172   -0.6014781360    1.6586980991
H        8.2701522552   -2.6422352821   -0.0858907877
H        7.2138790586   -1.6296591302    1.9295343379
H        7.0839431282   -2.5505515250   -2.2745841532
H        4.9942213719   -0.5402411068    1.7581559955
H        4.8680929229   -1.4542429926   -2.4401664623
H        4.2789099658    1.7658959923   -0.8458245362
H        3.8386779303    1.4741270512    0.8492118776
H        2.5736600919    1.7956316650   -0.3429841993
H        0.4211943955   -2.8516889945   -1.3719840049
H        1.1286579532   -1.3264920923   -1.9058345269
H       -0.1074330594   -1.3197944895   -0.6276851083
H        3.0926007291   -0.3448909669   -1.5078634079
H        1.4539847331   -2.5439827239    0.7643860533
25   
Generated by ForceBalance from scan.xyz: Frame 8 of 24
C        7.2441724786   -2.2136091195   -0.2918136777
C        6.6645025734   -1.6745406054    0.8626618318
C        6.5822979745   -2.0891258342   -1.5165239240
C        5.4357860709   -1.0143431427    0.7931242804
C        5.3502291040   -1.4297271430   -1.5831093081
C        4.7659138714   -0.8843784568   -0.4330312965
C        2.4536299634   -0.7777529903    0.4572043930
C        3.6033731330    1.3648800365   -0.2409916562
C        1.0262105507   -2.0310869286   -1.1671865527
C        3.4413007914   -0.1363297432   -0.5236972081
N        1.8524161831   -1.9665487186    0.0463959057
O        2.3532953425   -0.3894355204    1.6177221513
H        8.2006796920   -2.7270480568   -0.2359995803
H        7.1703719725   -1.7712326894    1.8201548861
H        7.0225358681   -2.5048364479   -2.4195194521
H        4.9838915564   -0.6098304276    1.6948226051
H        4.8406968264   -1.3369412161   -2.5402299700
H        4.3322121182    1.7985905688   -0.9319157814
H        3.9492376215    1.5291401916    0.7813190665
H        2.6499508256    1.8897632467   -0.3609838903
H        0.6763951050   -3.0583373862   -1.2950897078
H        1.6183827917   -1.7769466474   -2.0487005691
H        0.1546419821   -1.3647056463   -1.1226511275
H        3.0667403042   -0.2608054665   -1.5441168850
H        1.3514169693   -2.3439461290    0.8491343532
25   
Generated by ForceBalance from scan.xyz: Frame 9 of 24
C        7.0006890708   -2.3425266064   -0.3953476499
C        6.4204676732   -1.9090710316    0.8031063895
C        6.3916265583   -2.0205622225   -1.6110500918
C        5.2420641716   -1.1611639310    0.7840343319
C        5.2099828477   -1.2708892371   -1.6257165922
C        4.6227232373   -0.8338894464   -0.4318600373
C        2.3185870623   -0.5438389918    0.5250024549
C        3.6623878675    1.4904727096   -0.1420251641
C        1.5642544194   -2.3556157730   -1.0283210092
C        3.3621763572    0.0170751024   -0.4531047370
N        1.9070538883   -1.8478464381    0.3032811285
O        1.9814953494    0.0603651360    1.5401708650
H        7.9176508553   -2.9260054482   -0.3798964646
H        6.8867627238   -2.1574765475    1.7532726443
H        6.8341912326   -2.3509442567   -2.5475235901
H        4.7929598856   -0.8344735520    1.7191142002
H        4.7443018012   -1.0185228102   -2.5767565341
H        4.3823892211    1.8821731287   -0.8667700922
H        4.0835270593    1.5957342384    0.8599680880
H        2.7498411972    2.0915219318   -0.1845041546
H        1.2309531220   -3.3910178266   -0.9273545879
H        2.4465005734   -2.3597496455   -1.6723662277
H        0.7669284102   -1.7768842045   -1.5133628958
H        2.9415417251   -0.0393375312   -1.4646505442
H        1.2317062256   -2.1089606741    1.0174185130
25   
Generated by ForceBalance from scan.xyz: Frame 10 of 24
C        6.9806959964   -2.3373746979   -0.4249394076
C        6.3867507638   -1.9442738965    0.7802770905
C        6.3839203865   -1.9779582827   -1.6366618935
C        5.2063114970   -1.1983654287    0.7730820084
C        5.2007242611   -1.2313211435   -1.6396600411
C        4.5993453034   -0.8339203980   -0.4383331738
C        2.3170520415   -0.5137533055    0.5669151837
C        3.6569268402    1.4957669033   -0.1700066522
C        1.6466038223   -2.3759611523   -0.9886017614
C        3.3390351983    0.0190333166   -0.4480617860
N        1.8143401411   -1.7744117573    0.3325337367
O        2.0360763215    0.0964428099    1.5973585366
H        7.8988305218   -2.9191564373   -0.4184328695
H        6.8437134287   -2.2216616112    1.7269449191
H        6.8369699410   -2.2776632860   -2.5784253520
H        4.7476545714   -0.9003049330    1.7129534316
H        4.7430198011   -0.9510506048   -2.5867666209
H        4.3679826154    1.8673099862   -0.9140134801
H        4.0953508896    1.6144316175    0.8229007579
H        2.7487632954    2.1038172271   -0.2088345753
H        1.2455511046   -3.3839180652   -0.8603466507
H        2.6114694975   -2.4696164747   -1.4916342002
H        0.9597212758   -1.8086489906   -1.6308980976
H        2.8940842321   -0.0543854359   -1.4477756612
H        1.1097803152   -2.0204373367    1.0208293128
25   
Generated by ForceBalance from scan.xyz: Frame 11 of 24
C        6.9675075033   -2.3242302693   -0.4053689763
C        6.3791532373   -1.9444988497    0.8065221265
C        6.3653177459   -1.9519937370   -1.6108778606
C        5.1982831940   -1.1983546229    0.8128557032
C        5.1819297832   -1.2062975855   -1.6008799132
C        4.5859713972   -0.8218110502   -0.3921588716
C        2.3267721498   -0.4911993637    0.6554795640
C        3.6476170822    1.5090512463   -0.1330164337
C        1.6637035844   -2.3659157059   -0.9084104588
C        3.3234679751    0.0295816664   -0.3895816473
N        1.7129943475   -1.6857364456    0.3801713562
O        2.1267948016    0.0927417777    1.7210495433
H        7.8857738678   -2.9058204837   -0.4093127473
H        6.8406418420   -2.2314672504    1.7481401777
H        6.8142164465   -2.2417916207   -2.5577248050
H        4.7445916050   -0.9078941672    1.7573518052
H        4.7185382104   -0.9178008740   -2.5427044810
H        4.3486048151    1.8711776774   -0.8911448632
H        4.0993758734    1.6369939097    0.8525621130
H        2.7397153795    2.1182019990   -0.1667281096
H        1.1958314805   -3.3425398317   -0.7657769951
H        2.6707886094   -2.5358641221   -1.2960330928
H        1.0809326120   -1.8124217263   -1.6565925038
H        2.8596648508   -0.0571577783   -1.3790607154
H        1.0283479496   -1.9477189817    1.0803569045
25   
Generated by ForceBalance from scan.xyz: Frame 12 of 24
C        6.9342285513   -2.2387367613   -0.3927933654
C        6.3716355372   -1.8318563178    0.8224552544
C        6.2945102649   -1.9106799149   -1.5918748394
C        5.1801591516   -1.1025459417    0.8393217764
C        5.1002645479   -1.1827793668   -1.5716507475
C        4.5303778925   -0.7705932731   -0.3594726349
C        2.2835497186   -0.4836051287    0.7146204861
C        3.5491899009    1.5432596341   -0.0942324005
C        1.6773093759   -2.3922816324   -0.8402193029
C        3.2518597223    0.0572508817   -0.3461855984
N        1.5978046698   -1.6238086552    0.3957393414
O        2.1417602499    0.0569778052    1.8126367732
H        7.8609865609   -2.8066166452   -0.4044031542
H        6.8620255617   -2.0841799819    1.7593835168
H        6.7224861219   -2.2217196778   -2.5416763906
H        4.7463978184   -0.7908471153    1.7862648882
H        4.6066696899   -0.9311172163   -2.5085564987
H        4.2401486396    1.9171911098   -0.8558536998
H        4.0015546474    1.6815502374    0.8895597823
H        2.6294961661    2.1348838276   -0.1264572001
H        1.0647931263   -3.2890371212   -0.7270683114
H        2.7028697904   -2.7058702928   -1.0558662384
H        1.2920392935   -1.8297282748   -1.6990225613
H        2.7791532109   -0.0417382009   -1.3297579717
H        0.9972082327   -1.9576735472    1.1399700853
25   
Generated by ForceBalance from scan.xyz: Frame 13 of 24
C        6.8958273194   -2.3004214901   -0.4615588370
C        6.3545549684   -1.9069008820    0.7675252371
C        6.2547130906   -1.9285665050   -1.6472634202
C        5.1825465390   -1.1473898400    0.8106528240
C        5.0798805282   -1.1712427896   -1.6001490827
C        4.5310810047   -0.7720624325   -0.3744243723
C        2.2970949300   -0.4759225847    0.7197076392
C        3.5986519692    1.5520439882   -0.0286012390
C        1.8472266660   -2.4927779805   -0.7470809494
C        3.2704084504    0.0814745675   -0.3274659514
N        1.5822052992   -1.5945386423    0.3717466097
O        2.1477188941    0.0509473147    1.8226628782
H        7.8073385861   -2.8916275808   -0.4944176119
H        6.8461316776   -2.1924829025    1.6942321547
H        6.6666644837   -2.2289406578   -2.6075212392
H        4.7656567232   -0.8457011427    1.7684592251
H        4.5841179865   -0.8883487078   -2.5268736378
H        4.2911260910    1.9371287476   -0.7833050360
H        4.0612076699    1.6498894505    0.9553378011
H        2.6903896959    2.1616143148   -0.0339320940
H        1.0216228455   -3.2044714245   -0.8205485027
H        2.7852478164   -3.0473913229   -0.6301244450
H        1.8896912998   -1.9406222313   -1.6890899990
H        2.7887719395    0.0254255578   -1.3099701227
H        1.0481412967   -1.9674303910    1.1490446347
25   
Generated by ForceBalance from scan.xyz: Frame 14 of 24
C        6.6593225974   -2.6557205695    0.5869805701
C        5.8439706023   -2.1090883857    1.5842867904
C        6.3881294974   -2.3738306116   -0.7555122684
C        4.7668596536   -1.2872318263    1.2422124899
C        5.3072129248   -1.5537616121   -1.0945072245
C        4.4858179135   -1.0014604927   -0.1029520786
C        2.0667297301   -0.4894829093    0.2982039556
C        3.6717729009    1.3899483364   -0.2041750554
C        1.8627938785   -2.6329051666   -1.0118711135
C        3.3281346336   -0.0831152649   -0.4742472209
N        1.3212702001   -1.5241501266   -0.2256095868
O        1.6939813672    0.1101288035    1.3056397985
H        7.4968623755   -3.2951544126    0.8536207369
H        6.0470696503   -2.3236038401    2.6305847255
H        7.0156797926   -2.7926439646   -1.5383152424
H        4.1357611314   -0.8665006088    2.0210418315
H        5.1009219181   -1.3406935678   -2.1417595038
H        4.5734860268    1.6666139414   -0.7588994933
H        3.8496296717    1.5538622986    0.8602744233
H        2.8500193194    2.0432535174   -0.5120714487
H        1.0302448639   -3.2544269187   -1.3502993263
H        2.5651021462   -3.2528614120   -0.4423050229
H        2.3779110425   -2.2607979493   -1.8996227985
H        3.1275953417   -0.2052617733   -1.5440198763
H        0.5654711655   -1.7742327473    0.4054073099
25   
Generated by ForceBalance from scan.xyz: Frame 15 of 24
C        6.6822635951   -2.6367745988    0.5809930858
C        5.8558702954   -2.1138092107    1.5817365595
C        6.4161241038   -2.3387090283   -0.7590702322
C        4.7712159551   -1.2986495556    1.2466820828
C        5.3279725279   -1.5255142285   -1.0908711170
C        4.4949096559   -0.9966662760   -0.0958376431
C        2.0652362285   -0.5063919613    0.2930776593
C        3.6586861844    1.3878419632   -0.1811341385
C        1.8072217314   -2.6558158108   -0.9595078851
C        3.3297141952   -0.0864073755   -0.4657346309
N        1.2597179243   -1.4504551648   -0.3245935575
O        1.7161541163    0.0390131404    1.3373566200
H        7.5252856258   -3.2708460851    0.8430899665
H        6.0559453986   -2.3416026633    2.6258191320
H        7.0526046683   -2.7388087087   -1.5444764396
H        4.1320610729   -0.8957365003    2.0281263314
H        5.1253257991   -1.2982068144   -2.1358727695
H        4.5616133429    1.6764691063   -0.7276537875
H        3.8285158639    1.5434766867    0.8859057939
H        2.8338605928    2.0370487531   -0.4901687227
H        0.9818956865   -3.2206675745   -1.3997434979
H        2.3462698140   -3.2972946161   -0.2519335231
H        2.4925683787   -2.3867264222   -1.7651451007
H        3.1334627663   -0.2046913628   -1.5362506742
H        0.4679227884   -1.6527361053    0.2819271379
25   
Generated by ForceBalance from scan.xyz: Frame 16 of 24
C        6.7331777675   -2.6103896907    0.5785552943
C        5.9108475470   -2.0869738037    1.5825739397
C        6.4504543293   -2.3249763612   -0.7606904664
C        4.8151647452   -1.2845174658    1.2531327981
C        5.3516982157   -1.5241690870   -1.0884143387
C        4.5236864970   -0.9950442427   -0.0890416345
C        2.0777833168   -0.5431996560    0.2790725455
C        3.6466318128    1.3768524545   -0.1515059892
C        1.6859728713   -2.6675422408   -0.9355404904
C        3.3467039202   -0.0999992392   -0.4585582870
N        1.2067486984   -1.3655309137   -0.4387682684
O        1.7606319935   -0.0832025950    1.3714457314
H        7.5846505326   -3.2345061881    0.8373464592
H        6.1228729538   -2.3053699830    2.6262984077
H        7.0827624761   -2.7251949689   -1.5493843181
H        4.1786636275   -0.8832697781    2.0372976779
H        5.1373134733   -1.3060864716   -2.1330448846
H        4.5509804941    1.6872129764   -0.6834651479
H        3.8012349745    1.5212528878    0.9195181751
H        2.8152290273    2.0162646543   -0.4641436920
H        0.8825588500   -3.1437754047   -1.5029233925
H        1.9996925611   -3.3348155620   -0.1232571874
H        2.5347393194   -2.5269677730   -1.6074140161
H        3.1605110401   -0.2096841267   -1.5310180185
H        0.3749315726   -1.4894691943    0.1377832072
25   
Generated by ForceBalance from scan.xyz: Frame 17 of 24
C        6.8329313468   -2.5823589522    0.5883712419
C        6.0256765800   -2.0450827553    1.5977736230
C        6.5176663543   -2.3342201679   -0.7506639328
C        4.9134839162   -1.2647414175    1.2721848317
C        5.4018461663   -1.5548124094   -1.0742173241
C        4.5898698759   -1.0104083836   -0.0700333003
C        2.1209613713   -0.6337008613    0.2632567308
C        3.6345211738    1.3365194197   -0.0910398915
C        1.5473578189   -2.6846006953   -0.9547939341
C        3.3925199114   -0.1433369304   -0.4385517028
N        1.1968454789   -1.3026553196   -0.5617386208
O        1.8367647626   -0.3056673410    1.4086859172
H        7.6979848893   -3.1890140744    0.8437160940
H        6.2623915811   -2.2361695120    2.6415843944
H        7.1376796767   -2.7463094699   -1.5430055974
H        4.2851798613   -0.8567896446    2.0591165823
H        5.1624993086   -1.3651060004   -2.1188840922
H        4.5372767360    1.6900169001   -0.5980496300
H        3.7638794810    1.4604467622    0.9859828274
H        2.7879535037    1.9543697840   -0.4071256323
H        0.7771532634   -3.0675416581   -1.6289383329
H        1.6364217107   -3.3524599637   -0.0887503755
H        2.4999812542   -2.6904972141   -1.4902613511
H        3.2267592644   -0.2330819100   -1.5153685772
H        0.3263188545   -1.3367311434   -0.0290735559
25   
Generated by ForceBalance from scan.xyz: Frame 18 of 24
C        6.5429635655   -2.7437117453    0.3656684773
C        5.7712135009   -2.2066961152    1.4030044189
C        6.3063783239   -2.3364567874   -0.9506409424
C        4.7714172752   -1.2729975947    1.1230024428
C        5.3025005189   -1.4017420036   -1.2265716635
C        4.5230261741   -0.8616394036   -0.1963544702
C        2.0417020234   -0.4282938024   -0.1102902448
C        3.6664793212    1.4981958416    0.1720639230
C        1.9768930177   -2.8952774733   -0.3625125663
C        3.4154067743    0.1382592337   -0.4905365431
N        1.6069182990   -1.5513058763   -0.8716745681
O        1.2767766540    0.1622996495    0.6385402220
H        7.3203638540   -3.4717824502    0.5822529557
H        5.9468750231   -2.5190668429    2.4293892752
H        6.9005736773   -2.7471109720   -1.7631363501
H        4.1693139959   -0.8702544581    1.9344000517
H        5.1151011258   -1.0977688016   -2.2539017993
H        4.6354794510    1.8919135257   -0.1494570318
H        3.6720765162    1.4141470979    1.2614376543
H        2.8834458482    2.2109270970   -0.0986038788
H        1.4634643199   -3.6410660720   -0.9748681313
H        1.6894636297   -3.0372644785    0.6878072939
H        3.0504119023   -3.0579865418   -0.4589236626
H        3.3661119683    0.2672956425   -1.5769485448
H        0.5885008903   -1.4989872152   -0.8119247221
25   
Generated by ForceBalance from scan.xyz: Frame 19 of 24
C        6.9086331594   -2.7284849841   -0.2437061119
C        6.2758640042   -2.2837562405    0.9194898905
C        6.4726112984   -2.2535850604   -1.4865328758
C        5.2143182678   -1.3738789031    0.8434478065
C        5.4140632651   -1.3466162174   -1.5578936589
C        4.7670614711   -0.8925356356   -0.3958148232
C        2.2968079467   -0.6497586103   -1.0105978237
C        3.2260547763    0.8388387754    0.7352982732
C        0.9830853823   -2.0393457570    0.5233450355
C        3.5865902632    0.0537136775   -0.5386458234
N        2.0318908754   -1.9342612009   -0.5061389724
O        1.4563432221   -0.0248706840   -1.6408634795
H        7.7334438388   -3.4337437946   -0.1845299308
H        6.6092010686   -2.6412301792    1.8905353477
H        6.9582571347   -2.5901572802   -2.3988877828
H        4.7428376372   -1.0367085440    1.7618233720
H        5.0782249503   -0.9853400732   -2.5279099304
H        4.1008928333    1.3860071690    1.0997861143
H        2.8751082042    0.1874938247    1.5412155028
H        2.4319573395    1.5554398281    0.5136163175
H        0.7364958060   -3.0928859661    0.6805415931
H        0.0859903894   -1.5268779123    0.1713699973
H        1.2908092057   -1.5992762581    1.4813452107
H        3.8229856520    0.7810154723   -1.3212522928
H        2.8902432485   -2.3506617238   -0.1510937339
25   
Generated by ForceBalance from scan.xyz: Frame 20 of 24
C        6.9188112493   -2.7222603385   -0.2675108482
C        6.3511324156   -2.2292544598    0.9093913307
C        6.4226137241   -2.2907061284   -1.5039196899
C        5.2933581607   -1.3129824416    0.8533500682
C        5.3679791399   -1.3785218333   -1.5545901921
C        4.7854425189   -0.8752371252   -0.3785273673
C        2.2979766553   -0.6198836317   -0.9160878222
C        3.2873794320    0.8763153551    0.7793185446
C        0.8658387512   -2.0969401804    0.4219738203
C        3.6074224853    0.0778494457   -0.4968899480
N        2.0672267014   -1.8900673171   -0.3973153522
O        1.4362472281    0.0005493016   -1.5275156394
H        7.7406755770   -3.4321174802   -0.2244617225
H        6.7321295260   -2.5529581215    1.8747696409
H        6.8580428645   -2.6656826652   -2.4266243042
H        4.8734442783   -0.9364561836    1.7813634973
H        4.9835027753   -1.0516993717   -2.5187098601
H        4.1744295024    1.4179203469    1.1219634514
H        2.9478083397    0.2300105137    1.5953664180
H        2.4947152022    1.5986421189    0.5719900440
H        0.6873332360   -3.1683473471    0.5460512004
H        0.0082094879   -1.6594597330   -0.0906271864
H        0.9624720066   -1.6320200217    1.4123236915
H        3.8232708202    0.7938054634   -1.2955343858
H        2.8957050166   -2.2681681149    0.0541040143
25   
Generated by ForceBalance from scan.xyz: Frame 21 of 24
C        6.8891729292   -2.7586486075   -0.2597486842
C        6.3746996096   -2.2108724595    0.9173338753
C        6.3552991711   -2.3652730998   -1.4933497921
C        5.3319012914   -1.2774663410    0.8621614844
C        5.3154459611   -1.4363224294   -1.5423536990
C        4.7857225276   -0.8775638742   -0.3663262602
C        2.2802357847   -0.5834021905   -0.8164946153
C        3.3750518951    0.9552958585    0.7746611467
C        0.8229552155   -2.2263682014    0.2907691193
C        3.6228250445    0.0943253610   -0.4768348594
N        2.0952977050   -1.8643897017   -0.3365736644
O        1.3833890234    0.0553649478   -1.3594374299
H        7.6997424819   -3.4815231647   -0.2191828750
H        6.7853647799   -2.5040328873    1.8803470395
H        6.7503095342   -2.7833863146   -2.4157240412
H        4.9528594847   -0.8573361257    1.7889666596
H        4.9011950822   -1.1401276266   -2.5040023168
H        4.2864239300    1.4910402837    1.0574223045
H        3.0545863256    0.3514125866    1.6302341763
H        2.5892056453    1.6846015091    0.5667862444
H        0.7169819491   -3.3143256963    0.3106312647
H        0.0083843068   -1.8048650417   -0.2988446038
H        0.7543889843   -1.8392026651    1.3159135107
H        3.8210844302    0.7716896961   -1.3130907747
H        2.9097165335   -2.2453885479    0.1341886560
25   
Generated by ForceBalance from scan.xyz: Frame 22 of 24
C        6.8678847735   -2.7682132172   -0.2440536383
C        6.3716205721   -2.2120660870    0.9373917103
C        6.3211975500   -2.3754968682   -1.4718918446
C        5.3349764395   -1.2717406988    0.8930091697
C        5.2864285138   -1.4397343881   -1.5103432002
C        4.7750911024   -0.8731550942   -0.3303336198
C        2.2443218858   -0.5684032770   -0.6401393896
C        3.4689222115    1.0502051134    0.7808726686
C        0.8319160766   -2.3781824839    0.2510788599
C        3.6157899908    0.1037882417   -0.4246114555
N        2.1193619655   -1.8632796577   -0.2045023620
O        1.2995524480    0.0768970330   -1.0908454784
H        7.6744591510   -3.4959375970   -0.2108663134
H        6.7929392818   -2.5043739631    1.8960493297
H        6.7020249323   -2.7987100105   -2.3979304699
H        4.9706062291   -0.8449285761    1.8227785827
H        4.8619748960   -1.1443636937   -2.4677085588
H        4.4077940458    1.5800730440    0.9686219377
H        3.1921685355    0.5105986274    1.6925685016
H        2.6846445588    1.7818513297    0.5760235793
H        0.8313048401   -3.4699750197    0.1953091763
H        0.0490998202   -1.9881428127   -0.3999069595
H        0.6155425811   -2.0698833921    1.2821024025
H        3.7654434372    0.7235990958   -1.3141086520
H        2.9456494986   -2.2593158198    0.2286519047
25   
Generated by ForceBalance from scan.xyz: Frame 23 of 24
C        6.8270337326   -2.7894569485   -0.2191875635
C        6.3120724800   -2.2495072119    0.9628930675
C        6.3094039674   -2.3678892186   -1.4491412289
C        5.2871995035   -1.2979504599    0.9158966940
C        5.2844907153   -1.4197481771   -1.4902023584
C        4.7553737345   -0.8696580968   -0.3111553087
C        2.2051703921   -0.5261191137   -0.4324611560
C        3.6058787067    1.1920792240    0.7071517190
C        0.8566014428   -2.4919676517    0.1910798138
C        3.6075588172    0.1197125059   -0.3980739698
N        2.1278615853   -1.8539296663   -0.1234962220
O        1.2147210515    0.1567629870   -0.6941905285
H        7.6252734877   -3.5261924664   -0.1835030787
H        6.7101914669   -2.5650751847    1.9240751840
H        6.7045525250   -2.7772066809   -2.3754375422
H        4.9054088128   -0.8862033978    1.8456978842
H        4.8833179009   -1.1019631114   -2.4503316931
H        4.5693107621    1.7097581497    0.7377161305
H        3.4177344176    0.7594230981    1.6948055180
H        2.8153900717    1.9181277848    0.5078368738
H        0.9207201424   -3.5618393902   -0.0242473346
H        0.0781846053   -2.0456636858   -0.4287108733
H        0.5829848710   -2.3529313322    1.2445813507
H        3.6868228007    0.6418954211   -1.3574182334
H        2.9816230040   -2.3129695203    0.1673472679
25   
Generated by ForceBalance from scan.xyz: Frame 24 of 24
C        6.9543344515   -2.5866005387   -0.1873239430
C        6.2674738552   -2.1721929228    0.9598216818
C        6.5422041224   -2.1217227247   -1.4394189721
C        5.1794953097   -1.3024378226    0.8528190761
C        5.4508803262   -1.2520248232   -1.5405497028
C        4.7531052056   -0.8279226477   -0.3999029166
C        2.1816413253   -0.6133328967   -0.3998309538
C        3.5953563448    1.2991107439    0.4152499492
C        0.9535401392   -2.7281521212   -0.1395979774
C        3.5522586248    0.0891245036   -0.5347780951
N        2.1891204537   -1.9685992213   -0.2730958987
O        1.1368786703    0.0392335320   -0.4183448462
H        7.8018944290   -3.2618787998   -0.1043762368
H        6.5802056510   -2.5271783432    1.9386474326
H        7.0689906129   -2.4341031998   -2.3375367001
H        4.6545534243   -0.9939935353    1.7529414695
H        5.1359505567   -0.8968198103   -2.5195397314
H        4.5157819791    1.8692504782    0.2585045997
H        3.5601357684    0.9888426322    1.4638083114
H        2.7345166546    1.9437942664    0.2289899483
H        1.1856231323   -3.7156693396    0.2658201542
H        0.4461794929   -2.8465212266   -1.1039742010
H        0.2744340498   -2.2067828579    0.5384445403
H        3.5453929871    0.4799725297   -1.5591299487
H        3.0742717576   -2.4557011199   -0.2921939019
