14   

C       -1.7008164626   -0.2948149665    0.0982879559
C        0.4076507823   -0.7134711401    0.1434816868
C        1.7730573129   -1.3318565289    0.0555675803
C        0.2773311457    0.8242679608    0.1942988081
N        1.3770725688    2.0375385146   -1.9110809981
N       -1.1910618295    0.9114552910    0.1603482343
N       -0.7569443208   -1.3054407835    0.0726725555
N        0.8767403347    1.4886865259   -0.9691781924
N        1.8227321580   -2.6275193672   -0.2958711529
O        2.7940857397   -0.6728612590    0.1380145054
H       -2.7720154403   -0.4806961175    0.0667923135
H        0.7005566928    1.2167645506    1.1284179723
H        2.7418416929   -3.0512710425   -0.3874624865
H        0.9752462537   -3.1830829973   -0.3682469138
14   

C       -1.7243656748   -0.3283476384    0.0523447117
C        0.3844786400   -0.7221975334    0.2211090475
C        1.7549254493   -1.3379939925    0.1760723541
C        0.2360204193    0.8170008366    0.1814011877
N        1.4107047044    1.9272740319   -1.9402392272
N       -1.2301989576    0.8854060804    0.0819976833
N       -0.7697918868   -1.3277372676    0.1061027891
N        0.8778207013    1.4239162685   -0.9907993260
N        1.8391590504   -2.5547442420   -0.3971478306
O        2.7643788970   -0.6821444279    0.3602089192
H       -2.7914850603   -0.5282985062   -0.0130765111
H        0.6157875737    1.2643441781    1.1095964052
H        2.7673088811   -2.9573959821   -0.4933220449
H        1.0048823467   -3.1099199542   -0.5640026254
14   

C       -1.7204992552   -0.3409909933   -0.0704316371
C        0.3690076636   -0.7524051844    0.2530198917
C        1.7269031564   -1.4014634872    0.2965033448
C        0.2382949966    0.7905043621    0.1545090687
N        1.5330988282    1.8161471832   -1.9394445189
N       -1.2186421414    0.8691008880   -0.0317378102
N       -0.7797632475   -1.3469262973    0.0555122103
N        0.9486467272    1.3498080583   -1.0014985592
N        1.8911293754   -2.4848975083   -0.4952976491
O        2.7132233310   -0.7832028950    0.6528352828
H       -2.7839107323   -0.5336482829   -0.1928550437
H        0.5713934696    1.2654516493    1.0870186024
H        2.8291668903   -2.8729964271   -0.5456833269
H        1.0871356291   -3.0191828304   -0.8114765978
14   

C       -1.7133663783   -0.3028115682   -0.1746201627
C        0.3474558878   -0.7520451430    0.2677182009
C        1.6803901280   -1.4461387210    0.3928176440
C        0.2566422194    0.7940776668    0.1112689789
N        1.6423033631    1.7184124687   -1.9714408366
N       -1.1890523734    0.8976994757   -0.1378882707
N       -0.8003530662   -1.3246554662    0.0116873658
N        1.0194689218    1.2964326095   -1.0371946661
N        1.9729381869   -2.3616467768   -0.5622428206
O        2.6184721529   -0.8900570624    0.9328206040
H       -2.7746365928   -0.4767350758   -0.3368300764
H        0.5647625333    1.2941105141    1.0393779190
H        2.9179129958   -2.7359538202   -0.5423120961
H        1.2272326960   -2.8655132591   -1.0328527409
14   

C       -1.7264975546   -0.2937458731   -0.1901732122
C        0.3180538823   -0.7738718897    0.2958949870
C        1.6277624011   -1.5074585558    0.4643432764
C        0.2640426328    0.7698119380    0.0774664115
N        1.6741183474    1.5880692871   -2.0329388747
N       -1.1766707457    0.8958705700   -0.1886447420
N       -0.8377293743   -1.3280442512    0.0380038730
N        1.0420821129    1.2125548584   -1.0851006632
N        2.0526648457   -2.2348355626   -0.6018773895
O        2.5037856977   -1.0360903714    1.1642387720
H       -2.7900016404   -0.4503601162   -0.3552080787
H        0.5756553668    1.2986304276    0.9884205725
H        2.9990081005   -2.5986446828   -0.5231444135
H        1.3759483943   -2.6987044094   -1.2001128871
14   

C       -1.7469655377   -0.2733335400   -0.0994572546
C        0.2996597480   -0.7920059971    0.3356095833
C        1.5871909244   -1.5656348305    0.5192980856
C        0.2807000240    0.7442573086    0.0490003350
N        1.6299166304    1.4488582062   -2.1407544132
N       -1.1642680603    0.8983362183   -0.1759857896
N       -0.8806441552   -1.3212052636    0.1498029024
N        1.0264711189    1.1227827405   -1.1565755734
N        2.1277107170   -2.0930091785   -0.6171458446
O        2.3933773070   -1.2180740595    1.3602777743
H       -2.8195290765   -0.4065117131   -0.2207098068
H        0.6334099340    1.3027418157    0.9267741187
H        3.0697838685   -2.4575678381   -0.4960929307
H        1.5180726116   -2.5000035873   -1.3194341830
14   

C       -1.7823003621   -0.1982856317    0.1854881720
C        0.2774416643   -0.8051179342    0.3704896714
C        1.5384658250   -1.6240434986    0.5644918811
C        0.2934019919    0.7187467279    0.0131790579
N        1.3895068690    1.3007138007   -2.3476087602
N       -1.1602215982    0.9320211063   -0.0500023661
N       -0.9418752885   -1.2708086713    0.4131054197
N        0.9011018316    1.0263267276   -1.2865327825
N        2.1992214636   -1.9494307370   -0.5922723189
O        2.2144682979   -1.5221697038    1.5689818206
H       -2.8665851708   -0.2820086059    0.2015254769
H        0.7652881796    1.2960552395    0.8200548226
H        3.1171726320   -2.3571746319   -0.4262714446
H        1.6686918331   -2.2412795833   -1.4062831540
14   

C       -1.7441213259   -0.0101463782    0.6377417287
C        0.2545751482   -0.8047040013    0.3858589030
C        1.4831073331   -1.6721015969    0.5933588622
C        0.3027634664    0.7012822517   -0.0464225339
N        0.8652935018    1.1445080003   -2.6170116203
N       -1.1088661442    1.0406678367    0.1788489741
N       -0.9455329083   -1.1222227596    0.7954051607
N        0.6217251870    0.9265508449   -1.4615700155
N        2.2774708666   -1.8110286572   -0.5236492329
O        1.6720039480   -2.4084383880    1.5409737002
H       -2.8044038738   -0.0034679173    0.8800469120
H        0.9722936970    1.2737144196    0.6096764301
H        3.0036790935   -2.5150141859   -0.4009054633
H        1.9341494874   -1.6147927560   -1.4542176284
14   

C       -1.7266655170    0.0326635704    0.6973606737
C        0.2390099571   -0.8274062185    0.3870258388
C        1.4329334211   -1.7487110592    0.5755436052
C        0.3093620072    0.6659019749   -0.0871899648
N        0.6975278114    1.0213580801   -2.7040672653
N       -1.0764068970    1.0575936195    0.2029856341
N       -0.9576077189   -1.1014458945    0.8375059852
N        0.5362581491    0.8429543141   -1.5272482720
N        2.3557810668   -1.7023535717   -0.4539749633
O        1.5241223379   -2.6295352041    1.4075923933
H       -2.7751928068    0.0760597773    0.9831290562
H        1.0338606743    1.2359199320    0.5098138395
H        3.0776120996   -2.4167771787   -0.3708529295
H        2.1708177342   -1.2817160732   -1.3530329055
14   

C       -1.7234495705    0.0682128524    0.6921779584
C        0.2232454515   -0.8375290676    0.3737468881
C        1.3764366113   -1.8157945417    0.5457294184
C        0.3118612943    0.6465596772   -0.1325364808
N        0.6136932981    0.8972554264   -2.7734820679
N       -1.0570587571    1.0750046446    0.1825839853
N       -0.9784428195   -1.0819823356    0.8290448551
N        0.4937840675    0.7699775678   -1.5848503580
N        2.4332023924   -1.6226293154   -0.3283450838
O        1.3675858273   -2.8060983233    1.2502193430
H       -2.7659819884    0.1375601028    0.9943184137
H        1.0652060193    1.2169784694    0.4268759638
H        3.1536023626   -2.3398767700   -0.2577506494
H        2.4547729777   -0.9533460033   -1.0832524870
14   

C       -1.7481820296   -0.3662208000   -0.1386629553
C        0.3485540042   -0.7484078713    0.2830202006
C        1.6090552851   -1.5423752629    0.5939521648
C        0.1247883611    0.8000940600    0.3898817965
N        1.3646983478    2.1687192207   -1.5386450723
N       -1.3150179474    0.8458128230    0.1062416077
N       -0.7764765670   -1.3364921668   -0.0343083860
N        0.8215977243    1.5479840802   -0.6650610919
N        2.7542834529   -0.7673156778    0.7026709921
O        1.7054837020   -2.7539908654    0.6038626186
H       -2.7830519508   -0.5889663835   -0.3884938495
H        0.3605587658    1.1779623083    1.3930474347
H        3.5990293190   -1.3173267764    0.8526923689
H        2.7756865032    0.2349249410    0.8243045664
14   

C       -1.7495910331   -0.3565706665   -0.1190107126
C        0.3455043941   -0.7562158356    0.2806253148
C        1.6294302241   -1.5332064724    0.5137434681
C        0.1503806891    0.7957634342    0.3433430871
N        1.4030825984    2.0714412744   -1.6397817444
N       -1.2933238123    0.8554184214    0.0818143007
N       -0.7898375157   -1.3382445535   -0.0082578615
N        0.8516588442    1.4942064124   -0.7420653042
N        2.7221039350   -0.7306094263    0.8123324212
O        1.7747117909   -2.7339637299    0.3951268574
H       -2.7923193915   -0.5701320567   -0.3428736978
H        0.4042957983    1.2008819015    1.3308610188
H        3.5778367077   -1.2652286170    0.9564621002
H        2.6676846704    0.2220313375    1.1444456240
14   

C       -1.7565130166   -0.3457350196   -0.0806564366
C        0.3426580357   -0.7366986184    0.2981037189
C        1.6517761835   -1.4883338979    0.4544104601
C        0.1542394689    0.8166830181    0.3084826950
N        1.3999066018    2.0070082908   -1.7309345592
N       -1.2938152367    0.8712678818    0.0701169155
N       -0.7961174647   -1.3259844256    0.0401917622
N        0.8496782530    1.4690184544   -0.8086382625
N        2.6887786218   -0.7091008631    0.9405229988
O        1.8389462872   -2.6646222082    0.2135839895
H       -2.8039231715   -0.5635955423   -0.2768114115
H        0.4238840528    1.2565078806    1.2763551877
H        3.5476506699   -1.2409337154    1.0759126602
H        2.5608093956    0.1574154968    1.4454236830
14   

C       -1.7381728094   -0.3356567700   -0.0743361429
C        0.3658459686   -0.7068239256    0.2950943158
C        1.6941680767   -1.4335579347    0.3945407396
C        0.1715100070    0.8460139922    0.2580722620
N        1.3999912904    1.9657709914   -1.8307696430
N       -1.2800269872    0.8872301935    0.0384986308
N       -0.7706579111   -1.3081169588    0.0558765011
N        0.8564376551    1.4599556266   -0.8866814218
N        2.6691108802   -0.7380782834    1.0790351526
O        1.9164451260   -2.5692971744    0.0240959829
H       -2.7871381285   -0.5634481489   -0.2497822841
H        0.4540340687    1.3184635535    1.2064925187
H        3.5203327949   -1.2830798797    1.2090445054
H        2.4710994725    0.0225706274    1.7161341599
14   

C       -1.7308824396   -0.3411014581   -0.0562482443
C        0.3815438403   -0.6771151668    0.2972371969
C        1.7274310793   -1.3741258488    0.3559239051
C        0.1693303269    0.8719650175    0.2097125435
N        1.3524903915    1.9214974924   -1.9406686791
N       -1.2865771088    0.8898594861    0.0170678808
N       -0.7489767786   -1.2983855734    0.0817947753
N        0.8288619175    1.4478990084   -0.9690612462
N        2.6324487356   -0.8119915624    1.2206433041
O        1.9890778083   -2.4445823573   -0.1561603558
H       -2.7798373315   -0.5859135981   -0.2070442905
H        0.4682349803    1.3808701266    1.1340122106
H        3.4728839457   -1.3763020192    1.3353605068
H        2.3693004266   -0.1656001409    1.9542169994
14   

C       -1.6798000420   -0.3480684059   -0.0442632220
C        0.4404894801   -0.6331122577    0.2944091480
C        1.8085438749   -1.2822926151    0.3324212919
C        0.2002034656    0.9080628477    0.1638755492
N        1.3335310887    1.8978629570   -2.0409316788
N       -1.2589981972    0.8928178285   -0.0046715135
N       -0.6775492753   -1.2834589946    0.1022664536
N        0.8316581033    1.4525985308   -1.0448069867
N        2.6231474973   -0.8926953201    1.3556022831
O        2.1446066622   -2.2276352179   -0.3531936755
H       -2.7258545640   -0.6160296826   -0.1743575818
H        0.5092268560    1.4506765161    1.0656253846
H        3.4669442558   -1.4573467943    1.4356537688
H        2.2821475212   -0.3924792962    2.1681038733
14   

C       -1.6793327880   -0.3320291321    0.2528650099
C        0.4597158670   -0.5986504840    0.3087769703
C        1.8439117054   -1.2027690333    0.3335417871
C        0.2068037792    0.9306732103    0.1116478431
N        1.1426746928    1.7294720913   -2.2556503307
N       -1.2630719473    0.9041652717    0.1138582823
N       -0.6640184335   -1.2600682085    0.3821274716
N        0.7216726599    1.3758507943   -1.1886260216
N        2.5802614216   -1.0076679452    1.4574601454
O        2.4457196912   -1.4471661688   -0.6951244853
H       -2.7329963694   -0.6011595816    0.2709567919
H        0.6216326725    1.5227759241    0.9368129852
H        3.5415528481   -1.3347869554    1.3900046353
H        2.1398859654   -0.9289304323    2.3683369437
14   

C       -1.6323618544   -0.2688636730    0.6029652575
C        0.4856122177   -0.5627934452    0.3410906135
C        1.8849345913   -1.1207718136    0.3602427515
C        0.2110497949    0.9472073669    0.0661652440
N        0.8756639803    1.5921498711   -2.4348338779
N       -1.2464064548    0.9363426956    0.2592527142
N       -0.6019690572   -1.1845435554    0.7108428187
N        0.5708703881    1.3063731763   -1.3100883425
N        2.5459333391   -1.1279410189    1.5393450526
O        2.5882959966   -1.0138733907   -0.6278544650
H       -2.6730911466   -0.5228487228    0.7907667801
H        0.7288244239    1.5862106616    0.7925035475
H        3.5354468773   -1.3544606884    1.4764746407
H        2.0489342262   -1.2560381479    2.4151749987
14   

C       -1.5929453266   -0.2138391315    0.6933353322
C        0.5117357388   -0.5169950385    0.3501013812
C        1.9224868327   -1.0388321313    0.3794549617
C        0.2160623447    0.9676361074   -0.0085262956
N        0.7780428140    1.4825533026   -2.5639883504
N       -1.2323150593    0.9639126600    0.2445310244
N       -0.5501752582   -1.1126238898    0.8246636204
N        0.5176273427    1.2529242252   -1.4157063289
N        2.4964020544   -1.2534288673    1.5800398381
O        2.6850834663   -0.7687372201   -0.5309647257
H       -2.6226182965   -0.4586836892    0.9437332981
H        0.7588763164    1.6507545763    0.6570692201
H        3.4927942270   -1.4549913471    1.5635737641
H        1.9354791368   -1.4911619536    2.3922174191
14   

C       -1.5670199511   -0.2017579095    0.7155807995
C        0.5419548465   -0.4705212327    0.3761538444
C        1.9677113205   -0.9442189985    0.4209996901
C        0.2114892658    0.9814541624   -0.0582800305
N        0.7415994461    1.3930615157   -2.6391492538
N       -1.2352243023    0.9588797740    0.2046747679
N       -0.5033643037   -1.0694901392    0.8836090239
N        0.4951808353    1.2075245549   -1.4799730041
N        2.4545427461   -1.3685678446    1.6010429526
O        2.7752738630   -0.5415496723   -0.3972404910
H       -2.5893058883   -0.4555706042    0.9865294408
H        0.7430779002    1.7093600775    0.5679896165
H        3.4531996842   -1.5546788510    1.6368371009
H        1.8355801144   -1.7032528842    2.3331452920
14   

C       -1.7090363310   -0.3323528179    0.2261044173
C        0.3696438190   -0.7438078203   -0.1461933379
C        1.7067045497   -1.3940819814   -0.3581411197
C        0.2963067926    0.7348939343    0.3039455367
N        1.1779937585    2.4094329456   -1.5749967255
N       -1.1613199297    0.8321632303    0.4757132404
N       -0.8028454629   -1.3215689542   -0.1099730569
N        0.7738462799    1.6569978040   -0.7328360535
N        1.8863852030   -2.6263303012    0.1450787747
O        2.6918021359   -0.7309120209   -0.6298298918
H       -2.7816100300   -0.5033759360    0.2833894770
H        0.8438401192    0.8853719972    1.2433848973
H        2.8255578931   -3.0112730034    0.0929520460
H        1.0955347193   -3.2056151168    0.4104548489
14   

C       -1.7012299555   -0.3134814421    0.1913099596
C        0.3901938733   -0.7301349238   -0.0835396648
C        1.7393819386   -1.3651612835   -0.2542185729
C        0.2961868070    0.7704192003    0.2705846787
N        1.2164328608    2.3422186461   -1.6775342577
N       -1.1665922774    0.8660228585    0.3953639610
N       -0.7809565498   -1.3121030949   -0.0706600360
N        0.7953405180    1.6347559105   -0.8052462046
N        1.8506531664   -2.6666299661    0.0501410765
O        2.7458206488   -0.6973111824   -0.4127328322
H       -2.7740413293   -0.4885514130    0.2287592925
H        0.8159935897    0.9815708784    1.2142363408
H        2.7804832932   -3.0749147521    0.0115514821
H        1.0288737759   -3.2404686904    0.2147934532
14   

C       -1.7021081068   -0.3015893314    0.1714157915
C        0.3984774884   -0.7219934193   -0.0024243345
C        1.7559785486   -1.3451779884   -0.1433545785
C        0.2885924185    0.7959980554    0.2512724117
N        1.2571355043    2.2538978948   -1.7611143514
N       -1.1778126571    0.8899528942    0.3272822174
N       -0.7711248355   -1.3074100024   -0.0141633141
N        0.8147524649    1.5966295575   -0.8605516314
N        1.8288888149   -2.6803349572   -0.0529481647
O        2.7721098820   -0.6769567991   -0.2138571209
H       -2.7748801659   -0.4800803806    0.1886074037
H        0.7789874887    1.0687097237    1.1949969052
H        2.7519881722   -3.1024452188   -0.1018792410
H        0.9908933722   -3.2488696187    0.0274176051
14   

C       -1.7055086921   -0.3052569722    0.1316953416
C        0.4025670370   -0.7196837734    0.0677136265
C        1.7671851627   -1.3332383370   -0.0468988937
C        0.2749303119    0.8107605644    0.2196947955
N        1.3032495877    2.1514761487   -1.8439879997
N       -1.1938143264    0.8969838287    0.2403035017
N       -0.7630471800   -1.3120745215    0.0266362999
N        0.8344331123    1.5460721699   -0.9207134036
N        1.8233543802   -2.6665452237   -0.1770542315
O        2.7858994240   -0.6653908200   -0.0405261597
H       -2.7771899269   -0.4908661219    0.1243076650
H        0.7301437365    1.1457157074    1.1610821877
H        2.7436792175   -3.0917809917   -0.2466509303
H        0.9785915352   -3.2308364971   -0.1735135526
