44

C      2.38998   -2.12553   -2.72931
C     -0.00158    2.39742    2.43097
C      0.83365    1.30842    2.08025
C     -1.08838    2.79646    1.64644
C     -0.50626    0.96677    0.14332
C      0.58431    0.57615    0.92298
C     -0.96852    0.39032   -1.07795
C     -1.33077    2.06443    0.47569
C     -2.05268    1.14115   -1.47986
C      0.97153   -1.89855    1.13579
C      1.01222   -3.10198    0.55193
C     -1.81432   -4.41171    1.02325
C     -0.24627   -0.81110   -1.61653
C      1.47002   -3.30255   -0.86901
C      1.37472   -0.62144    0.42905
C      1.21965   -0.79999   -1.10398
C     -2.93850   -5.03432    0.23090
C     -2.94490    1.03153   -2.67332
C      0.56484   -4.34422    1.27045
N      2.81810   -2.19674   -3.81655
N     -2.26205    2.16484   -0.54457
N      1.93424   -2.04130   -1.47476
O     -1.94360   -3.57253    1.89163
O     -4.33849    1.04842   -2.32062
O     -0.61356   -4.91964    0.63255
H      0.21601    2.95028    3.34096
H      1.67405    1.05518    2.72306
H     -1.70328    3.64364    1.93876
H      0.60718   -1.80951    2.15641
H     -0.73713   -1.72926   -1.27117
H     -0.22990   -0.84329   -2.71054
H      2.30613   -4.01091   -0.89439
H      0.65806   -3.75289   -1.45804
H      2.44059   -0.44427    0.62314
H      1.74726    0.02112   -1.59547
H     -2.84156   -4.75910   -0.82397
H     -3.89434   -4.68180    0.61741
H     -2.88571   -6.12475    0.28976
H     -2.82024    1.89000   -3.34125
H     -2.68396    0.12832   -3.23895
H      0.34264   -4.13201    2.31654
H      1.31035   -5.14145    1.20511
H     -3.07606    2.76453   -0.55585
H     -4.49394    0.31120   -1.70770
