43

C      8.31629   -0.58549   -3.60967
C      7.12961   -0.77755   -2.90634
C      9.31122   -2.26945   -2.19851
C      9.42609   -1.34771   -3.24093
C      7.10189   -1.71502   -1.86232
C      5.16108    0.76647    1.06931
C      4.48897    0.17425   -0.99545
C      2.01373    1.71880    0.08964
C      5.29464    1.63703    2.27773
C      4.08664    2.58113    2.40577
C      3.78098    3.26446    1.06388
C     -0.25090    1.49712   -0.75671
C     -1.03291    2.04420   -1.94500
C      1.51671    2.34856   -2.29352
C      3.44975    2.26323   -0.06246
C      5.82999   -1.94791   -1.06749
N      8.17035   -2.44759   -1.52100
N      5.76047   -0.36920    0.84159
N      4.39126    1.15521   -0.00992
N      5.33329   -0.74359   -0.42796
N      1.13560    1.96310   -0.92188
O      3.94499    0.16787   -2.10694
O      1.67766    1.13875    1.12501
S      0.11032    1.86846   -3.36483
Cl    10.95386   -1.16045   -4.07828
H      8.38109    0.12851   -4.42529
H      6.23214   -0.22072   -3.16102
H     10.16440   -2.87653   -1.90290
H      5.41251    1.00615    3.16194
H      6.21638    2.22491    2.17843
H      3.20907    2.02145    2.73418
H      4.30286    3.34469    3.15956
H      2.94234    3.95907    1.16877
H      4.64988    3.85338    0.74532
H     -0.64101    1.85928    0.19780
H     -0.27298    0.40245   -0.73881
H     -1.93608    1.46353   -2.14108
H     -1.30512    3.09391   -1.80037
H      1.68493    3.42884   -2.35910
H      2.39915    1.79693   -2.62268
H      3.57539    2.75531   -1.02782
H      5.03382   -2.30916   -1.72506
H      6.02174   -2.68992   -0.29258
