56

C      0.95566    2.51257    1.99800
C      0.98056    1.91787    0.71385
C      0.40679    1.87423    3.11414
C     -0.06273   -0.00884    1.63911
C      0.46197    0.63862    0.52011
C     -0.61793   -1.31824    1.72510
C     -0.11504    0.59002    2.91753
C     -1.01031   -1.49825    3.03473
C     -0.53810   -2.18921    0.50640
C     -0.02973    0.87304   -1.95663
C     -0.25957   -1.23634   -3.26853
C      0.37959   -0.09481   -0.81263
C     -0.79882    0.17565   -3.09259
C     -0.62930   -1.26920   -0.73163
C     -1.11872   -4.66143   -3.61748
C     -1.88447   -3.66037    5.85879
C     -1.41935    1.29652   -7.08583
C     -1.67857   -2.64194    3.73031
C     -0.70828    0.96138   -4.40590
C      0.28819   -4.14076   -3.29702
C      0.36252   -3.30284   -2.01953
N     -0.72942   -0.33548    3.74609
N     -0.55581   -2.09477   -2.04850
O     -1.22527   -2.66831    5.07458
S     -1.85269    0.25357   -5.65256
H      1.37200    3.50850    2.11777
H      1.40601    2.48088   -0.11261
H      0.39101    2.36505    4.08307
H      0.42055   -2.71945    0.51260
H     -1.33456   -2.94227    0.46881
H     -0.64749    1.67540   -1.54606
H      0.87170    1.34453   -2.36113
H     -0.69352   -1.73643   -4.13310
H      0.82604   -1.21923   -3.38908
H      1.36726   -0.52116   -1.03838
H     -1.86204    0.11147   -2.82769
H     -1.63621   -0.84383   -0.74138
H     -1.55068   -5.20096   -2.76721
H     -1.81241   -3.86166   -3.90558
H     -1.08430   -5.35421   -4.46161
H     -1.47377   -3.59110    6.86697
H     -1.69742   -4.66706    5.46045
H     -2.96844   -3.48312    5.89336
H     -2.05065    0.97268   -7.91565
H     -0.37084    1.16553   -7.36438
H     -1.62471    2.34872   -6.87526
H     -2.77456   -2.51649    3.70817
H     -1.44431   -3.58503    3.21291
H      0.31774    0.94162   -4.79220
H     -0.97733    2.00525   -4.21661
H      0.70232   -3.59689   -4.15034
H      0.95987   -4.98909   -3.12854
H      0.05741   -3.91225   -1.17093
H      1.37056   -2.92593   -1.83499
H     -0.80340   -0.29300    4.75496
H     -1.50002   -2.46767   -2.18182
