47

C     -0.77617    4.20585    4.19946
C      1.47549   -2.08595    0.11865
C     -1.46641    3.40295    3.28806
C      0.37098   -1.39129    0.60850
C     -0.58676    3.78297    5.51856
C      1.84114   -0.26077    2.16093
C      5.01641   -1.93071   -0.52635
C     -1.79418    1.73191    5.00585
C      3.87396   -4.01009   -0.17570
C      5.90810   -4.06426   -1.23694
C      2.77270   -1.89394    0.61508
C      2.94139   -0.97376    1.67381
C      3.90230   -2.61444   -0.02178
C     -1.98373    2.15986    3.68323
C      0.55550   -0.45306    1.63702
C      6.01506   -2.67913   -1.12701
C     -1.10245    2.54408    5.90553
C      4.23723   -0.76576    2.34171
C     -1.82545    0.30028    1.89043
C     -4.07329    0.75300    3.00549
C     -3.89070    1.79643    1.94558
C     -2.67122    1.26737    2.69286
N      4.84221   -4.72102   -0.76554
N      5.16691   -1.74481    2.56920
N      4.62025    0.40837    2.85940
N      6.14992   -1.18822    3.23318
N      5.79709    0.08584    3.39249
N     -0.48346    0.31768    2.19318
O     -2.32525   -0.43580    1.04118
F      7.11048   -2.05513   -1.62845
Cl    -0.87448    1.99463    7.55740
H     -0.38066    5.16830    3.88652
H      1.33088   -2.78157   -0.70324
H     -1.60814    3.73608    2.26347
H     -0.61640   -1.55634    0.20057
H     -0.05357    4.40082    6.23402
H      1.99404    0.43763    2.97987
H      5.10485   -0.85041   -0.46126
H     -2.18437    0.77088    5.32737
H      3.03216   -4.57768    0.21635
H      6.69717   -4.64157   -1.71465
H     -4.49738    1.05671    3.95751
H     -4.29610   -0.25771    2.68123
H     -3.99076    1.48381    0.91190
H     -4.18958    2.81507    2.17218
H      6.38821    0.75657    3.87176
H     -0.19978    0.96883    2.91516
