48

C     -3.67224    1.69704   -0.54813
C      3.22970    1.76812    0.24185
C     -2.46550    1.36213   -1.16287
C      2.05640    1.60388   -0.50084
C     -2.97955    0.50592    1.41168
C      1.75861   -0.60287    0.48297
C     -1.76585    0.14489    0.81278
C     -3.94943    1.27592    0.75767
C      3.67842    0.77102    1.10375
C      2.93380   -0.42305    1.23160
C      1.32499    0.42535   -0.38010
C     -1.50398    0.58722   -0.49996
C      0.96917   -1.88299    0.48792
C      8.36844    1.04966    1.67589
C      7.38345    0.20750    2.02951
C     -0.78928   -0.64903    1.64878
C     -5.26272    1.60649    1.42705
C      7.46672   -0.65694    3.26344
C      2.64070   -2.26137    2.81790
C      6.10540    0.11106    1.22952
C      4.96296    0.93058    1.88534
O      1.40348   -2.93255    0.06807
O     -0.29252   -1.83716    0.99596
O      5.29757    2.31650    1.93509
O      3.46784   -1.33277    2.10546
S     -0.06877    0.13735   -1.47700
H     -4.39777    2.30028   -1.08947
H      3.80510    2.68452    0.17161
H     -2.25676    1.71304   -2.16975
H      1.71509    2.37902   -1.17939
H     -3.17918    0.16384    2.42604
H      8.30705    1.64535    0.76753
H      9.27872    1.14236    2.26423
H      0.04562   -0.02040    1.96778
H     -1.29639   -1.01478    2.54388
H     -6.01034    0.82990    1.22500
H     -5.15231    1.68097    2.51293
H     -5.66819    2.55452    1.06165
H      6.61749   -0.47764    3.93357
H      8.38892   -0.48080    3.82333
H      7.42650   -1.71743    2.98653
H      3.20041   -2.51886    3.71915
H      2.45299   -3.15906    2.22697
H      1.69062   -1.79990    3.10809
H      5.78119   -0.93094    1.15312
H      6.25221    0.49877    0.21673
H      4.79708    0.55062    2.90167
H      6.22833    2.37271    2.21480
