43

C      2.92212   -3.07521   -0.72592
C      3.74096   -1.97813   -0.99406
C      4.20958   -4.31536   -2.34082
C      3.16444   -4.26209   -1.41408
C      4.76467   -2.11564   -1.93884
C      5.47458    1.21335    0.38481
C      4.56685    1.15269   -1.67470
C      2.21476    1.77030    0.01004
C      5.67977    1.70568    1.77950
C      4.37194    2.30585    2.32825
C      3.76494    3.30304    1.32865
C     -0.09579    1.32311   -0.58471
C     -1.21504    2.10977   -1.25433
C      1.11849    3.14844   -1.76837
C      3.46308    2.67625   -0.04797
C      5.69342   -0.97482   -2.32545
N      4.99216   -3.26323   -2.59566
N      6.07411    0.22028   -0.20644
N      4.58887    1.85359   -0.46434
N      5.54646    0.20246   -1.49935
N      1.10483    2.17034   -0.66342
O      3.81716    1.35385   -2.63098
O      2.23796    0.73937    0.69208
S     -0.42421    2.87080   -2.72020
Cl     2.17653   -5.68252   -1.12752
H      2.11826   -3.00483    0.00056
H      3.56656   -1.04749   -0.46625
H      4.41566   -5.23372   -2.88717
H      6.04108    0.88093    2.39779
H      6.46389    2.47419    1.77080
H      3.65611    1.50577    2.52793
H      4.57552    2.82014    3.27269
H      2.84008    3.73223    1.72625
H      4.46283    4.13413    1.17096
H     -0.31105    1.10474    0.46386
H      0.08507    0.37489   -1.10244
H     -2.02651    1.46070   -1.58838
H     -1.61925    2.87974   -0.59087
H      1.14182    4.17070   -1.37816
H      1.96537    2.96880   -2.43400
H      3.33625    3.46945   -0.78459
H      6.72956   -1.31439   -2.27034
H      5.48749   -0.68054   -3.35781
