43

C      5.51359   -0.56158    5.74772
C      5.14390    0.08692    4.56694
C      3.28239   -1.45177    5.96318
C      4.58892   -1.33136    6.46540
C      3.83761   -0.02948    4.07121
C      2.89777   -0.81599    4.78504
C      0.14218    1.60262    3.48847
C     -0.60298    0.34656    2.95347
C      0.68016    1.21428    4.89128
C     -0.70506   -0.61120    4.15846
C      0.55179   -0.31071    4.96826
C      3.89146   -2.43210    8.67220
C      4.28250    1.37090    2.18567
C      5.82777   -3.31446    7.27915
C      5.03808   -2.06755    7.71900
N      6.60246   -3.85276    8.47833
O      6.04782   -1.32549    8.44572
O      1.64810   -0.98038    4.26963
O      3.37970    0.56265    2.94601
H      6.53070   -0.44867    6.11260
H      5.87932    0.68670    4.04339
H      2.53069   -2.05039    6.46693
H      0.96247    1.87598    2.82183
H     -0.52310    2.46768    3.55696
H     -1.58520    0.58672    2.53827
H     -0.01815   -0.12712    2.16103
H      1.70281    1.55626    5.07334
H      0.05524    1.64455    5.68206
H     -1.57765   -0.37030    4.77651
H     -0.76961   -1.66578    3.87805
H      0.51478   -0.69030    5.99684
H      4.27823   -2.83510    9.61477
H      3.20847   -3.16510    8.23613
H      3.31288   -1.53936    8.92167
H      3.70375    1.73789    1.33865
H      5.12924    0.77915    1.82018
H      4.64588    2.21977    2.77590
H      5.18559   -4.10688    6.89527
H      6.57467   -3.04395    6.53333
H      5.99136   -4.32579    9.15258
H      7.01733   -3.03141    8.95150
H      7.34576   -4.50658    8.20864
H      5.73961   -0.41374    8.58422
