28

C     -0.23426    2.66189    0.06194
C     -1.76787    0.92275   -0.58955
C     -1.52170    2.27762   -0.34387
C      0.80189    1.73363    0.23653
C     -0.75780   -0.03391   -0.42958
C      0.51323    0.38762   -0.00362
C     -0.13080   -2.23677   -0.34415
C      1.06702   -1.85216    0.51018
C     -2.60666    3.31124   -0.55111
C      2.18597    2.14740    0.67203
C      0.72776   -1.91605    2.00322
N     -1.00376   -1.38235   -0.75043
N     -0.30924   -3.58946   -0.56827
O      1.52621   -0.54665    0.13229
H     -0.02886    3.71322    0.25530
H     -2.74563    0.58129   -0.92064
H      1.91280   -2.51286    0.29457
H     -2.61210    3.67739   -1.58534
H     -3.59830    2.89617   -0.34658
H     -2.46282    4.17790    0.10158
H      2.49601    1.60587    1.57214
H      2.92893    1.92372   -0.10151
H      2.22353    3.21953    0.88242
H     -0.09683   -1.23698    2.23734
H      1.60173   -1.62516    2.59326
H      0.42999   -2.93113    2.28249
H     -1.03527   -3.79843   -1.24664
H      0.52932   -4.14757   -0.67434
