26   
Generated by ForceBalance from scan.xyz: Frame 1 of 24
C        3.0458021250   -0.0760086506    1.3600204295
C        0.9657347162    1.2857834847    1.6885747287
C        1.1276074416   -0.3440146709   -0.1088962074
C        0.8923252454    2.4142776841    0.6571378037
C        1.0564416919    0.7814693633   -1.1429510557
C       -1.2078246316    2.3650445271   -2.8300078720
N        1.6883929035    0.1295930766    1.1550457136
N        0.2502257578    1.8894053326   -0.5735165609
N        3.5713365404    0.4800935578    2.5299063300
O        3.7546698380   -0.6983876853    0.5703261422
O        1.1542610499    3.5034198369   -2.4451455204
O       -0.7762024064    4.1914955347   -0.9407928209
S       -0.0575424265    3.1558348405   -1.6890739173
H        1.4534437872    1.6666301766    2.5847795348
H       -0.0493293772    0.9722526687    1.9573183107
H        0.1189223441   -0.7265776849    0.0839397332
H        1.7540516722   -1.1515772706   -0.4846886186
H        0.2819203221    3.2327085421    1.0420199412
H        1.9038668351    2.7896573002    0.4479733288
H        2.0656809118    1.1192990240   -1.4099558467
H        0.5685847636    0.4014779696   -2.0433303275
H       -1.5492927705    3.1643185110   -3.4900627109
H       -0.6922875286    1.6017088372   -3.4109503102
H       -2.0402727745    1.9527541643   -2.2602137114
H        4.5067768259    0.1263758445    2.6981387205
H        2.9853200197    0.4446297716    3.3562325512
26   
Generated by ForceBalance from scan.xyz: Frame 2 of 24
C        3.0691197803   -0.0617935329    1.3800550178
C        0.9476005083    1.2520088367    1.6201619853
C        1.2396361599   -0.3401524832   -0.1968981361
C        0.9207170838    2.4052007639    0.6131504683
C        1.2136533416    0.8029637340   -1.2133274850
C       -1.3451158630    2.3868334695   -2.6995072304
N        1.7206024734    0.1198046092    1.1052315520
N        0.3758069742    1.8945368043   -0.6649718564
N        3.5192956391    0.4830256058    2.5863750352
O        3.8329959769   -0.6541376188    0.6191450329
O        1.1363835882    3.3148063372   -2.7344083162
O       -0.4943176874    4.2648749588   -1.0232051482
S        0.0239162498    3.1297408316   -1.7936193213
H        1.3709081616    1.6158697830    2.5553179704
H       -0.0770766621    0.9159460080    1.8155365309
H        0.2266888856   -0.7381727679   -0.0678124715
H        1.8975135308   -1.1336098487   -0.5480920614
H        0.2730718529    3.2060191720    0.9716673037
H        1.9371127135    2.8030813830    0.4834746337
H        2.2322610000    1.1514159457   -1.4230319797
H        0.7782315991    0.4443188007   -2.1493528498
H       -1.6213319957    3.1067083710   -3.4718231069
H       -1.0187714704    1.4536359208   -3.1584919229
H       -2.1674501951    2.2241212947   -2.0035711904
H        4.4516245913    0.1449318011    2.7983693634
H        2.8908763823    0.4194630025    3.3791728027
26   
Generated by ForceBalance from scan.xyz: Frame 3 of 24
C        3.0422975762   -0.0868287221    1.4778372117
C        0.9026889124    1.2149453114    1.5962690035
C        1.3169848454   -0.3609197170   -0.2144754381
C        0.9325900376    2.3804273850    0.6027066680
C        1.3478363090    0.7876417791   -1.2245389465
C       -1.4590077500    2.3998830378   -2.5180736412
N        1.7137431912    0.0930013337    1.1184843931
N        0.4900775508    1.8779692196   -0.7129970399
N        3.4126626265    0.4489866710    2.7153516470
O        3.8556857796   -0.6702169794    0.7627449696
O        1.0587048867    3.0886921166   -2.9488846698
O       -0.2451596924    4.2900356847   -1.1111989223
S        0.0778617385    3.0694588399   -1.8575795959
H        1.2630557030    1.5691080044    2.5611134429
H       -0.1301818442    0.8699610189    1.7214449708
H        0.2996393112   -0.7638581358   -0.1499534368
H        1.9987852289   -1.1500565376   -0.5279113885
H        0.2560262733    3.1727793897    0.9237422511
H        1.9507544785    2.7911867435    0.5501411142
H        2.3775304902    1.1330457354   -1.3777902461
H        0.9620700279    0.4422391139   -2.1865944484
H       -1.7809547769    3.0782954555   -3.3102082177
H       -1.2682149935    1.4067062025   -2.9265010436
H       -2.1899348782    2.3627786917   -1.7109466971
H        4.3305982924    0.1110022313    2.9831411916
H        2.7353275549    0.3745988949    3.4658360195
26   
Generated by ForceBalance from scan.xyz: Frame 4 of 24
C        3.0159895417   -0.0780652176    1.5306962789
C        0.8515042988    1.1877081214    1.5385385551
C        1.3985528814   -0.3559871788   -0.2662388814
C        0.9114155809    2.3669170305    0.5617789070
C        1.4648037569    0.8046103159   -1.2605036940
C       -1.5659502623    2.5098123733   -2.3460576193
N        1.7097599701    0.0885252901    1.0929350714
N        0.5633595429    1.8742821313   -0.7834883799
N        3.3029598210    0.4479722546    2.7947729178
O        3.8798379577   -0.6414808956    0.8602050006
O        0.9293528185    2.8882813459   -3.1320699301
O       -0.0035844757    4.3303879022   -1.2354721666
S        0.1047910533    3.0423879914   -1.9292238433
H        1.1517354204    1.5362615858    2.5257905871
H       -0.1795604455    0.8205583030    1.6028571037
H        0.3868699539   -0.7782213225   -0.2643005430
H        2.1118173885   -1.1290425802   -0.5483442037
H        0.2014609119    3.1402426561    0.8564109497
H        1.9194651157    2.8041369006    0.5737971729
H        2.4961735611    1.1686008311   -1.3475228669
H        1.1406012876    0.4712469249   -2.2478171158
H       -1.9360829245    3.1923327868   -3.1134111756
H       -1.5213148280    1.4900708050   -2.7303502801
H       -2.1778347752    2.5661100168   -1.4458256175
H        4.2082351760    0.1194131505    3.1128016324
H        2.5834027697    0.3518870519    3.5023130527
26   
Generated by ForceBalance from scan.xyz: Frame 5 of 24
C        3.0256998179   -0.0526310554    1.5949519507
C        0.8057287156    1.1083276714    1.4940699279
C        1.5142768215   -0.4008440050   -0.2828877899
C        0.8400066479    2.2868783160    0.5144238469
C        1.5629478602    0.7630235019   -1.2732623684
C       -1.6295125694    2.6675373671   -2.1618254987
N        1.7389391232    0.0574135719    1.0890132242
N        0.5726983527    1.7756494547   -0.8430150403
N        3.2231665706    0.4839724305    2.8723206109
O        3.9474673074   -0.5767867742    0.9715192929
O        0.7679368204    2.5813931671   -3.2735246838
O        0.3242956256    4.2850062013   -1.4168879543
S        0.1430108516    2.9505815976   -1.9999488256
H        1.0475639328    1.4764571816    2.4901681853
H       -0.2062042693    0.6867195441    1.5194983327
H        0.5284567266   -0.8781388779   -0.3278211880
H        2.2812274941   -1.1328017108   -0.5318245678
H        0.0755077793    3.0169585177    0.7863183497
H        1.8168736500    2.7860837574    0.5640245067
H        2.5751832115    1.1866457933   -1.3008865508
H        1.3089940028    0.4195708752   -2.2762491345
H       -2.0043880809    3.3984380524   -2.8807901470
H       -1.7827983661    1.6508137799   -2.5236245703
H       -2.0958046301    2.8143459791   -1.1869482709
H        4.1255440359    0.1962193925    3.2351243409
H        2.4746517896    0.3496155650    3.5426746313
26   
Generated by ForceBalance from scan.xyz: Frame 6 of 24
C        3.0324669546   -0.0116791163    1.6697840821
C        0.7444852780    0.9935475185    1.4793899811
C        1.6255096205   -0.4576377519   -0.2672989499
C        0.7396089331    2.1728153567    0.4997162083
C        1.6392030279    0.7102818750   -1.2528468097
C       -1.6085481959    2.8629276768   -1.9473049695
N        1.7618445391    0.0093491976    1.1136609394
N        0.5578737078    1.6484353885   -0.8676385933
N        3.1397260629    0.5336205204    2.9544552367
O        4.0127082697   -0.4668406162    1.0828825975
O        0.5822959619    2.3104173578   -3.3363018350
O        0.6690802279    4.1590283932   -1.5780184984
S        0.1914734263    2.8457378806   -2.0293674949
H        0.9207265137    1.3764166349    2.4836143494
H       -0.2370217068    0.5049837049    1.4645842595
H        0.6763610472   -0.9986759739   -0.3545051975
H        2.4486612189   -1.1364598531   -0.4852017510
H       -0.0856413548    2.8456045333    0.7470641904
H        1.6748163066    2.7410686120    0.5855910042
H        2.6206138666    1.2023358279   -1.2301009936
H        1.4498714773    0.3576601772   -2.2666826674
H       -1.9443571943    3.6437791836   -2.6319597602
H       -1.9740348004    1.8844620627   -2.2573629185
H       -1.9175144369    3.0969426634   -0.9278574913
H        4.0459542804    0.3111939174    3.3520282452
H        2.3777133367    0.3401175840    3.5945416133
26   
Generated by ForceBalance from scan.xyz: Frame 7 of 24
C        1.3255487232   -2.3122972538    0.8618629968
C        0.9628501830   -0.7529645880    2.7885379427
C        0.0442935278   -0.2579879959    0.5883792008
C        1.8812492545    0.4709217562    2.6839909987
C        0.9595974113    0.9588599344    0.4622270182
C        1.4600199703    3.6475792672    3.4462931901
N        0.6285650080   -1.2751907317    1.4649586258
N        1.2286965896    1.4774412921    1.8255525815
N        1.9489879058   -3.2110234401    1.7356810334
O        1.4061548424   -2.4440505897   -0.3580181443
O        1.3295473381    3.8006191977    0.7939467114
O        3.4432409977    2.8782506424    1.8744266442
S        1.9797067153    3.0093749932    1.8418437717
H        1.4622541979   -1.5122122480    3.3886781499
H        0.0346693963   -0.4671672189    3.2972377772
H       -0.9173297689    0.0505314557    1.0135969819
H       -0.1205751702   -0.7007314473   -0.3927200056
H        2.0374824507    0.8831887770    3.6837955854
H        2.8592175957    0.1773683615    2.2794656734
H        1.8904939291    0.6714643608   -0.0447638550
H        0.4704205250    1.7449419272   -0.1136465341
H        1.8894787982    4.6484002388    3.5170184899
H        0.3713675972    3.6887172173    3.4677625942
H        1.8558889071    3.0191959098    4.2434237848
H        2.2706940566   -4.0258630490    1.2243449819
H        1.4341061409   -3.4586244218    2.5732862072
26   
Generated by ForceBalance from scan.xyz: Frame 8 of 24
C        1.4228802647   -2.2501165803    0.8831256356
C        0.8480840956   -0.7105079659    2.7715574942
C        0.0883167626   -0.2475531123    0.5088786858
C        1.7449761967    0.5340308602    2.7366703574
C        0.9819699142    0.9895197036    0.4443247487
C        1.6817948125    3.5792243311    3.5415785682
N        0.6335581158   -1.2475312955    1.4295752163
N        1.1459763765    1.5212187982    1.8199916615
N        2.0120949142   -3.1246677387    1.8039318169
O        1.6077926582   -2.3717011081   -0.3261677480
O        1.0610449391    3.9116168780    0.9670273792
O        3.3334389134    2.9530174893    1.5762633823
S        1.8878875418    3.0594573682    1.8252503738
H        1.3112829315   -1.4545823327    3.4180566546
H       -0.1248510897   -0.4418220801    3.1990233780
H       -0.9083474285    0.0374241647    0.8631412027
H        0.0055503312   -0.6956838872   -0.4800697448
H        1.7954301174    0.9517142668    3.7443523523
H        2.7610518702    0.2567806892    2.4215120628
H        1.9521205384    0.7245691936    0.0033982530
H        0.5110437235    1.7624606810   -0.1649649606
H        1.9284184465    4.6425162510    3.5392361397
H        0.6439071457    3.4312120425    3.8408155937
H        2.3786667337    3.0410718436    4.1819523038
H        2.4090311322   -3.9228970743    1.3199150625
H        1.4418900911   -3.3977113230    2.5966346448
26   
Generated by ForceBalance from scan.xyz: Frame 9 of 24
C        1.4875375077   -2.2311937347    0.9226475691
C        0.7487749138   -0.6952356637    2.7547645595
C        0.1221085241   -0.2715297465    0.4459084643
C        1.6200226636    0.5687456598    2.7686716380
C        0.9904965802    0.9845813233    0.4253975161
C        1.8592194572    3.5096832394    3.5497779435
N        0.6340449427   -1.2498032693    1.4080837402
N        1.0648763076    1.5316600108    1.8023532766
N        2.0400289139   -3.0818726285    1.8879990500
O        1.7562124342   -2.3541362894   -0.2705161820
O        0.7679842664    3.9749370125    1.1534499380
O        3.1290304591    3.0617548959    1.2821773233
S        1.7507820357    3.0989555257    1.7958098389
H        1.1824560820   -1.4229251177    3.4393686286
H       -0.2554097821   -0.4416800120    3.1132540364
H       -0.9006811037   -0.0080519731    0.7359275758
H        0.1114674255   -0.7293221080   -0.5420109552
H        1.5849642005    0.9931741523    3.7732945135
H        2.6617481442    0.3050123363    2.5308788885
H        1.9903990488    0.7431123865    0.0423365519
H        0.5356918780    1.7409248070   -0.2175990271
H        2.0876337456    4.5771152761    3.5585392466
H        0.8987378758    3.3295690208    4.0341650265
H        2.6719843536    2.9529208033    4.0131139104
H        2.4913647551   -3.8708139764    1.4374607421
H        1.4248411512   -3.3681656619    2.6415385253
26   
Generated by ForceBalance from scan.xyz: Frame 10 of 24
C        1.5528137555   -2.2244216026    0.9516887288
C        0.6635192497   -0.7063402260    2.7300151893
C        0.1734634057   -0.2975817811    0.3868754203
C        1.5093739384    0.5734915838    2.7976924667
C        1.0150021480    0.9766934215    0.4184544229
C        2.0091467210    3.4326019629    3.5445532097
N        0.6466109385   -1.2641779657    1.3801215618
N        0.9988899095    1.5229835929    1.7965249264
N        2.0617411679   -3.0619891150    1.9522407039
O        1.9014221062   -2.3405035892   -0.2212561270
O        0.4987424220    4.0019048990    1.4161979022
O        2.8714514430    3.1934348720    1.0662579517
S        1.6049010657    3.1277990431    1.8124245627
H        1.0636904431   -1.4253330636    3.4436835167
H       -0.3658290773   -0.4683288206    3.0209122213
H       -0.8704493593   -0.0562520337    0.6137254561
H        0.2332467962   -0.7553074980   -0.5993399910
H        1.4001461434    0.9955475482    3.7975594486
H        2.5687540232    0.3230344539    2.6292781822
H        2.0400787200    0.7623723867    0.0909734957
H        0.5812396876    1.7216929749   -0.2525660960
H        2.2939344839    4.4863703955    3.5604100355
H        1.1318419636    3.2759859125    4.1732108659
H        2.8540864150    2.8144797921    3.8443206134
H        2.5588594081   -3.8403422766    1.5324606979
H        1.4049404923   -3.3632171213    2.6637439406
26   
Generated by ForceBalance from scan.xyz: Frame 11 of 24
C        1.5664875463   -2.1912257050    0.9943410670
C        0.5851554174   -0.6635412052    2.7138928436
C        0.2106331157   -0.2734247081    0.3469932601
C        1.4251495609    0.6183425466    2.8100800240
C        1.0440887163    1.0055197406    0.4089744868
C        2.1987883958    3.4034022512    3.4824729052
N        0.6363632460   -1.2318094310    1.3693832481
N        0.9618339832    1.5589762228    1.7807368671
N        2.0273222470   -3.0200685756    2.0254138336
O        1.9753753698   -2.3141605866   -0.1583371510
O        0.3199600361    4.0486365411    1.7167767089
O        2.6024448124    3.3583030197    0.8708782149
S        1.5006470688    3.1899586871    1.8303602974
H        0.9519262128   -1.3756729560    3.4520147735
H       -0.4570651453   -0.4242456354    2.9525902265
H       -0.8439969070   -0.0342856424    0.5200529831
H        0.3209134755   -0.7380537825   -0.6316617042
H        1.2705350060    1.0476179671    3.8012373187
H        2.4910251610    0.3638458806    2.6935699438
H        2.0837385372    0.7982012045    0.1263669913
H        0.6384736674    1.7405731107   -0.2894045200
H        2.5428166983    4.4394299561    3.4808307366
H        1.4283251944    3.2697520963    4.2419065180
H        3.0438158062    2.7303656421    3.6240744843
H        2.5461846982   -3.8000618473    1.6360088626
H        1.3359382986   -3.3188799259    2.7045054977
26   
Generated by ForceBalance from scan.xyz: Frame 12 of 24
C        1.6011047869   -2.1588997320    1.0190404511
C        0.5055769917   -0.6365375304    2.6716682074
C        0.2727807050   -0.2530797099    0.2854379838
C        1.3244248729    0.6553450949    2.8062239747
C        1.0865254996    1.0358752490    0.3963884563
C        2.3761070093    3.3593680836    3.3895002687
N        0.6413541524   -1.2073689785    1.3338969243
N        0.8996658406    1.5927430019    1.7574146714
N        2.0021646009   -2.9838583905    2.0779862880
O        2.0832172291   -2.2796471070   -0.1053977336
O        0.1907488665    4.0519880095    2.0860442513
O        2.2758928132    3.5341333970    0.7408817626
S        1.3911086258    3.2403244786    1.8760999125
H        0.8394759363   -1.3419582903    3.4314927973
H       -0.5507601878   -0.4082084078    2.8507791646
H       -0.7929248600   -0.0239422165    0.3910973690
H        0.4490263434   -0.7172435953   -0.6837663396
H        1.1218062170    1.0836272871    3.7900047220
H        2.3965384804    0.4108510013    2.7366330716
H        2.1452714663    0.8358336268    0.1875307719
H        0.7268386168    1.7603840529   -0.3352191195
H        2.7485107510    4.3853886757    3.3740251700
H        1.7436154710    3.2064190340    4.2630418368
H        3.2110087608    2.6592010619    3.3564146410
H        2.5490657124   -3.7609028445    1.7225024676
H        1.2714544405   -3.2866953754    2.7127277970
26   
Generated by ForceBalance from scan.xyz: Frame 13 of 24
C        1.6541229935   -2.1469963769    1.0902051954
C        0.4193071228   -0.6360156720    2.6510856140
C        0.3539477836   -0.2664524149    0.2517002989
C        1.2026784382    0.6721899736    2.8282806488
C        1.1375402738    1.0352854600    0.4166470823
C        2.5550429307    3.2838575844    3.2502218666
N        0.6570723921   -1.2117806954    1.3292464851
N        0.8227337073    1.6011155663    1.7524129804
N        1.9897004293   -2.9624150695    2.1786085642
O        2.2220288495   -2.2605473999    0.0056088634
O        0.1523016121    3.9763165082    2.4768660461
O        1.9296040941    3.6703523041    0.6837906394
S        1.3023909534    3.2463353420    1.9401553701
H        0.7154263274   -1.3302002155    3.4364194458
H       -0.6506377109   -0.4273933654    2.7578330452
H       -0.7197984936   -0.0523426116    0.2768949821
H        0.6078249791   -0.7312874396   -0.6997521576
H        0.9332151861    1.1035544366    3.7957150657
H        2.2808876620    0.4492650075    2.8212419597
H        2.2127200228    0.8404828701    0.3040465142
H        0.8375545634    1.7494220296   -0.3492876975
H        2.8955290494    4.3208843013    3.2637664429
H        2.0994182687    3.0290160326    4.2055064165
H        3.3850239023    2.6208404232    3.0023182063
H        2.5742317089   -3.7311699870    1.8678662359
H        1.2196011218   -3.2749405233    2.7598094684
26   
Generated by ForceBalance from scan.xyz: Frame 14 of 24
C        1.6852510368   -2.1235341346    1.1196703105
C        0.3120133216   -0.6546784536    2.6031763573
C        0.4042608903   -0.2660842823    0.2057194320
C        1.0538040832    0.6676627797    2.8387658413
C        1.1446000983    1.0513603756    0.4345725986
C        2.6393534582    3.2124540913    3.0741659805
N        0.6520372624   -1.2138188312    1.2955712377
N        0.7193351198    1.5982689803    1.7473658754
N        1.9616221760   -2.9424441994    2.2214589417
O        2.3317479059   -2.2122002863    0.0773184907
O        0.1123554004    3.8262373495    2.8386667000
O        1.5241101737    3.8033409984    0.7147619087
S        1.1669849892    3.2315027700    2.0153477388
H        0.5695429867   -1.3492792689    3.4015105228
H       -0.7668909444   -0.4699692429    2.6390345974
H       -0.6729498347   -0.0744565057    0.1575197472
H        0.7331258375   -0.7176697574   -0.7289203145
H        0.7190826706    1.0943841167    3.7884713258
H        2.1348501826    0.4682664730    2.8911970001
H        2.2293474467    0.8737032581    0.4024520469
H        0.8876185124    1.7693260594   -0.3428154553
H        2.9309979104    4.2600914263    3.1681877632
H        2.3801640030    2.8082450816    4.0510639871
H        3.4382793918    2.6416975959    2.5971133912
H        2.5834214391   -3.6955210735    1.9469183792
H        1.1604375086   -3.2756703960    2.7463453799
26   
Generated by ForceBalance from scan.xyz: Frame 15 of 24
C        1.7293281365   -2.0594478100    1.1302502944
C        0.2482618020   -0.6401717117    2.5579840965
C        0.4947899302   -0.1903515340    0.1795806653
C        0.9719478892    0.6737469075    2.8773909415
C        1.2136750644    1.1238295094    0.4861598736
C        2.7286676189    3.2289688324    2.9429413665
N        0.6771639992   -1.1635784810    1.2601088327
N        0.7149826443    1.6294730610    1.7863707924
N        1.9390279903   -2.9070731197    2.2244201051
O        2.4463315754   -2.1128902367    0.1322086662
O        0.1600620034    3.6877934277    3.1671323144
O        1.2220599427    3.9444254816    0.8572222997
S        1.1044667854    3.2465781284    2.1384965508
H        0.4519574125   -1.3572045517    3.3519244683
H       -0.8308806201   -0.4569876262    2.5252829052
H       -0.5779069679    0.0002945875    0.0692179656
H        0.8829406829   -0.6187890185   -0.7430827632
H        0.5799373830    1.0888809405    3.8094901674
H        2.0473511784    0.4695735561    2.9927912740
H        2.2995345630    0.9478252974    0.5110896931
H        0.9942722952    1.8651965749   -0.2813045241
H        2.9898301000    4.2762345263    3.1047917924
H        2.6491920440    2.7109301192    3.8977529592
H        3.4618605508    2.7549363409    2.2873304819
H        2.5844613724   -3.6478875287    1.9720756654
H        1.1083828434   -3.2591416582    2.6874903721
26   
Generated by ForceBalance from scan.xyz: Frame 16 of 24
C        1.7819272137   -1.9964837112    1.1392364819
C        0.2023125323   -0.6138635766    2.4940561916
C        0.5976454605   -0.1214291032    0.1450251479
C        0.9235367505    0.6784898257    2.8944820039
C        1.3173004413    1.1761580608    0.5162035908
C        2.8441283993    3.2919977607    2.7543660310
N        0.7105515595   -1.1163286371    1.2152785765
N        0.7732817145    1.6559957033    1.8041338778
N        1.9307589117   -2.8619129111    2.2282304917
O        2.5632894716   -2.0215899847    0.1892809507
O        0.3026868627    3.5795828432    3.3808614066
O        1.0230847551    4.0350312258    0.9685849535
S        1.1180733972    3.2609758069    2.2069332130
H        0.3343758653   -1.3529782320    3.2829671541
H       -0.8684771907   -0.4107359424    2.3884843694
H       -0.4652733156    0.0860104928   -0.0161346226
H        1.0274272610   -0.5374673356   -0.7647471690
H        0.4722594892    1.0926319852    3.7983738256
H        1.9830153204    0.4495869588    3.0895456051
H        2.3985296253    0.9827002261    0.5819749420
H        1.1364086606    1.9402272482   -0.2400060323
H        3.0727297729    4.3329945858    2.9892461056
H        2.9462827383    2.6747264271    3.6472314338
H        3.4863084436    2.9372601381    1.9464579264
H        2.5980444781   -3.5928639952    2.0061361166
H        1.0773849406   -3.2259241913    2.6373190796
26   
Generated by ForceBalance from scan.xyz: Frame 17 of 24
C        1.8122730752   -1.9919001281    1.1027450816
C        0.1583388920   -0.6578559445    2.4195567274
C        0.6796560842   -0.0834468260    0.1143253200
C        0.8630464324    0.6100808818    2.9154965539
C        1.3900810699    1.1937032100    0.5669585921
C        2.8194853143    3.4013809697    2.6108876992
N        0.7366523154   -1.1153348321    1.1529283124
N        0.8056104551    1.6227191485    1.8508747593
N        1.9053839591   -2.8955954135    2.1660718849
O        2.6434165798   -1.9817571439    0.1953896218
O        0.3538439591    3.4082426809    3.5811242088
O        0.7294514177    4.0451030781    1.1315098680
S        1.0444837734    3.2257608661    2.3027035130
H        0.2368252763   -1.4292942656    3.1844083083
H       -0.9027710989   -0.4411753517    2.2577528955
H       -0.3732627653    0.1386122106   -0.0873844056
H        1.1486021316   -0.4703118109   -0.7889478779
H        0.3550831540    1.0037797484    3.7967861781
H        1.9034172304    0.3620510763    3.1802077383
H        2.4668828468    0.9905342523    0.6639692512
H        1.2373222752    1.9887472016   -0.1644081553
H        2.9872824779    4.4403957147    2.8997162259
H        3.1082970397    2.7315564120    3.4224186659
H        3.3629671963    3.1728315824    1.6931469609
H        2.5845416274   -3.6185024886    1.9540416043
H        1.0327322763   -3.2724918308    2.5188211196
26   
Generated by ForceBalance from scan.xyz: Frame 18 of 24
C        1.3923022850   -2.2160269186    1.0323022247
C        0.5723584676   -0.4647017568    2.6173755256
C        0.8076931000    0.0016899056    0.2318333856
C        1.7434801445    0.4816189422    2.9228552946
C        1.9792985187    0.9453058699    0.5113295214
C        2.0791918749    3.9426034141    3.0636010304
N        0.7151524095   -1.0306570557    1.2711649595
N        1.9157018417    1.5125046289    1.8789410373
N        1.3845117889   -3.1414835656    2.0836914034
O        1.9763201571   -2.4558337369   -0.0247452902
O       -0.2024131924    2.6245597172    2.9113099436
O        0.8252377464    3.5308965695    0.7594588757
S        0.9771928270    2.9120637457    2.0799870162
H        0.5456062737   -1.2542822076    3.3677370285
H       -0.3683665286    0.0903326094    2.6696220016
H       -0.1324423349    0.5639156497    0.2225767887
H        0.9387858642   -0.4879038346   -0.7323999390
H        1.5974025747    0.9602105528    3.8936885730
H        2.6783601903   -0.0884847181    2.9621154389
H        2.9215955146    0.3919183554    0.4453574217
H        2.0045217828    1.7646638089   -0.2066233299
H        1.5339172100    4.8608506224    3.2890279982
H        2.3294736566    3.4140246169    3.9841756015
H        2.9712384292    4.1490388596    2.4727732060
H        1.7149715539   -4.0423639785    1.7548046593
H        0.5215586134   -3.2154047399    2.6111894200
26   
Generated by ForceBalance from scan.xyz: Frame 19 of 24
C        2.8240803487    0.0489262608    1.4801238861
C        1.2874305904    1.9996509255    1.1952633878
C        0.7792441634   -0.1666365038    0.1872807516
C        1.5347865155    2.5964283663   -0.1973005329
C        1.0207610331    0.4070198392   -1.2107402170
C       -0.6290355786    3.2889384721   -3.0830036914
N        1.5686023758    0.5592941353    1.1894515638
N        0.7910199921    1.8708728132   -1.2472868951
N        3.6049151283    0.8160981558    2.3536334813
O        3.2482035432   -1.0044230054    1.0040003147
O       -1.1778841409    3.3647362245   -0.4998520745
O       -1.6291404468    1.2077088794   -1.7936710113
S       -0.7990472633    2.3893792130   -1.5321030589
H        1.9147217688    2.5136983158    1.9229475237
H        0.2417025102    2.1547336062    1.4782184732
H       -0.2800950107   -0.0723655580    0.4479175694
H        1.0626274535   -1.2179867139    0.2186041988
H        1.2552659741    3.6506627710   -0.2132973790
H        2.5980764034    2.5161395575   -0.4495191078
H        2.0629573966    0.2433975382   -1.5032699029
H        0.3732246751   -0.0746300599   -1.9430260548
H       -1.6176118284    3.6748159280   -3.3389034385
H        0.0775298916    4.1062063948   -2.9343098705
H       -0.2724089529    2.5940105989   -3.8433880342
H        4.4038927836    0.2768825412    2.6694929407
H        3.1146217314    1.2660720383    3.1187783215
26   
Generated by ForceBalance from scan.xyz: Frame 20 of 24
C        2.8020881654   -0.0240843270    1.4531220899
C        1.2627756995    1.9356340236    1.2665302580
C        0.7776348886   -0.1654608894    0.1179400593
C        1.5321985119    2.6198678276   -0.0803357997
C        1.0413166067    0.4957982823   -1.2375042010
C       -0.6582155626    3.0643695436   -3.1870026779
N        1.5486405810    0.4987949111    1.1755367488
N        0.8094590112    1.9581987130   -1.1847205098
N        3.5632978867    0.6882431241    2.3878398689
O        3.2401991907   -1.0418703322    0.9160591143
O       -1.0329978120    3.6506271785   -0.6337830054
O       -1.6823643022    1.3288956248   -1.4792026683
S       -0.7739945265    2.4832039832   -1.4863952262
H        1.8742750562    2.4042615912    2.0371106456
H        0.2113592841    2.0682092031    1.5429172619
H       -0.2857679469   -0.0877447117    0.3637457551
H        1.0648081602   -1.2158040598    0.0884835698
H        1.2457340570    3.6707265646   -0.0416551889
H        2.5999386460    2.5554158841   -0.3180681383
H        2.0875458705    0.3491795072   -1.5247980827
H        0.4072594030    0.0553093366   -2.0080250880
H       -1.6535478998    3.4067203709   -3.4764350220
H        0.0620277414    3.8817864085   -3.2202882234
H       -0.3395876873    2.2328782639   -3.8167524444
H        4.3604068699    0.1341670656    2.6818648873
H        3.0576734278    1.0863501939    3.1715092326
26   
Generated by ForceBalance from scan.xyz: Frame 21 of 24
C        2.7740844307   -0.0888180149    1.4232247377
C        1.2260238171    1.8684585754    1.3180178095
C        0.7723737685   -0.1655666084    0.0503427723
C        1.5373235700    2.6236999792    0.0192781245
C        1.0709746862    0.5664526830   -1.2618681504
C       -0.6899399195    2.8304108350   -3.2217216528
N        1.5191700366    0.4389049443    1.1594221079
N        0.8535148169    2.0285260982   -1.1472757865
N        3.5165439081    0.5746264515    2.4069103496
O        3.2276032382   -1.0707831612    0.8346988914
O       -0.8838217097    3.8591699974   -0.7805964382
O       -1.6963256689    1.4778219609   -1.1906427995
S       -0.7309505973    2.5582577656   -1.4421838955
H        1.8096562367    2.2975692843    2.1320966894
H        0.1658185655    1.9804796841    1.5697296762
H       -0.2954862401   -0.0978569084    0.2752053993
H        1.0603675608   -1.2129646337   -0.0309306602
H        1.2505279508    3.6722393546    0.0992030871
H        2.6120512853    2.5691044601   -0.1868116574
H        2.1207865682    0.4224144925   -1.5365271057
H        0.4516948507    0.1671843713   -2.0677809666
H       -1.6973340421    3.1303298321   -3.5157678489
H        0.0332485084    3.6178915220   -3.4319312787
H       -0.4129349374    1.8980142169   -3.7149381493
H        4.3144440902    0.0117209001    2.6812627315
H        2.9974970228    0.9273990388    3.2033529719
26   
Generated by ForceBalance from scan.xyz: Frame 22 of 24
C        2.7709155178   -0.0890647596    1.3989086101
C        1.2124769388    1.8616972650    1.3275950348
C        0.8164239913   -0.1115238199   -0.0422843803
C        1.5716154461    2.6738035001    0.0765388754
C        1.1540037852    0.6835060427   -1.3087342193
C       -0.7526402343    2.6551850900   -3.2054071206
N        1.5215733204    0.4425947897    1.1178691137
N        0.9393104532    2.1453038414   -1.1536696205
N        3.4736300559    0.5326515603    2.4371584932
O        3.2514076623   -1.0398474791    0.7811136611
O       -0.7324808660    4.0530247308   -0.9365833977
O       -1.6387022201    1.6773578961   -0.9189807746
S       -0.6617668694    2.6652592072   -1.4063993275
H        1.7647036613    2.2587566437    2.1789721671
H        0.1436508435    1.9555784402    1.5471026657
H       -0.2575504512   -0.0632648831    0.1527584401
H        1.1180343968   -1.1508213465   -0.1669694143
H        1.2870475086    3.7204576347    0.1901096419
H        2.6534883368    2.6258919045   -0.0891922171
H        2.2118769380    0.5500254996   -1.5560996272
H        0.5672915026    0.3138440888   -2.1526280797
H       -1.7755805611    2.9414138601   -3.4555517238
H       -0.0358602086    3.3799861478   -3.5900641568
H       -0.5439678464    1.6526664920   -3.5779901686
H        4.2666249101   -0.0364515639    2.7128601018
H        2.9247245594    0.8454922025    3.2302553834
26   
Generated by ForceBalance from scan.xyz: Frame 23 of 24
C        2.7900351908   -0.1048334404    1.3922245542
C        1.2143230628    1.8331171879    1.3449897336
C        0.8978433127   -0.0770019211   -0.1274402258
C        1.6198621695    2.7031464706    0.1471796550
C        1.2853191054    0.7806227754   -1.3379233104
C       -0.7978030570    2.4510640635   -3.1348857286
N        1.5464784697    0.4270481621    1.0866278583
N        1.0508935621    2.2366492850   -1.1423669502
N        3.4447794740    0.4751168862    2.4842247603
O        3.3048307792   -1.0216742338    0.7509631189
O       -0.5625277877    4.1989524800   -1.1283622385
O       -1.5271749182    1.9007622119   -0.6585015457
S       -0.5597126719    2.7535206125   -1.3731260324
H        1.7303234602    2.1975821897    2.2328806028
H        0.1376585649    1.9074695780    1.5252348230
H       -0.1835526203   -0.0495595163    0.0257691366
H        1.2171681988   -1.1058405659   -0.2898477587
H        1.3274478971    3.7441317807    0.2956625990
H        2.7082272736    2.6708015848    0.0274657521
H        2.3569597133    0.6714544599   -1.5320345887
H        0.7592441463    0.4402077251   -2.2317772635
H       -1.7536786977    2.9211143552   -3.3727676549
H        0.0130518649    2.9225906002   -3.6897249343
H       -0.8562660187    1.3809886819   -3.3260414793
H        4.2328817323   -0.0980953397    2.7653143433
H        2.8620668223    0.7476725852    3.2679855500
26   
Generated by ForceBalance from scan.xyz: Frame 24 of 24
C        3.0353102596   -0.0754934068    1.2680548698
C        0.9900609723    1.3062453464    1.7064783318
C        1.0224703912   -0.3561196742   -0.0632511509
C        0.8691918548    2.4125681672    0.6563623530
C        0.9009367333    0.7494681568   -1.1146829019
C       -1.0365036255    2.3332638446   -2.9647873118
N        1.6670264931    0.1314419311    1.1539351986
N        0.1387197658    1.8781432871   -0.5228293843
N        3.6414545514    0.4957712678    2.3899770190
O        3.6860245954   -0.7120988042    0.4404667732
O        1.1021084922    3.6807790066   -2.1815776282
O       -1.0772523024    4.0801744160   -0.9433733737
S       -0.1586686645    3.1651811806   -1.6262985811
H        1.5354666350    1.6996253468    2.5631616489
H       -0.0098199693    1.0102908110    2.0426788418
H        0.0222099132   -0.7187721390    0.1987911081
H        1.6117940089   -1.1802580395   -0.4623850887
H        0.2967967787    3.2483412350    1.0643405794
H        1.8695156171    2.7671874341    0.3731898606
H        1.8978548340    1.0671513665   -1.4478955357
H        0.3522970054    0.3510825706   -1.9703555650
H       -1.4673025518    3.1430496279   -3.5564457219
H       -0.3348550986    1.7626063264   -3.5705977088
H       -1.8268985643    1.7098459296   -2.5456441810
H        4.5854828716    0.1421295708    2.5000671714
H        3.1127368929    0.4784138124    3.2545915457
