20

C      2.27355   -0.95813    1.26431
C     -1.50103    2.04424   -1.11894
C      2.44472   -0.87769   -0.88851
C     -1.75207    1.85187    1.01856
C      0.99245   -0.81714    0.78166
C     -0.99897    0.80776   -0.78260
N      3.15898   -1.00783    0.21290
N     -1.97617    2.67124    0.00932
N      1.10175   -0.77170   -0.61043
N     -1.16678    0.68007    0.59848
O     -0.35334   -0.08760    2.92238
O     -1.41338   -1.78973    1.35408
O     -1.02683   -1.64206   -1.81202
O      0.40124    0.15485   -2.91303
S     -0.55167   -0.65210    1.59929
S     -0.22397   -0.43882   -1.74461
H      2.59105   -1.01883    2.29693
H     -1.53560    2.50261   -2.09847
H      2.81994   -0.83943   -1.90266
H     -1.96907    2.03631    2.06241
