43

C      4.14580   -3.25507   -3.51270
C      3.64495   -2.19454   -4.27677
C      3.59064   -3.55392   -2.26306
C      2.58801   -1.42046   -3.79158
C      2.53403   -2.78722   -1.76495
C      0.98040    1.01706    3.08929
C     -0.43620    0.35736    1.67775
C      2.05349   -1.72753   -2.53788
C      0.85233    5.24115   -1.61318
C      1.34542    3.21472   -3.00651
C     -0.96045    3.56880   -2.07316
C      1.59979    0.62346   -1.03202
C      0.56303    1.54068   -0.35246
C      0.92091    3.04473   -0.46372
C      0.54605    3.74057   -1.79885
N     -0.13464    0.24364    2.96703
N      1.38170    1.59780    1.96254
N      0.44741    1.17250    1.06012
O      0.00274   -0.09719   -3.01856
O     -0.01561   -1.48866   -0.87614
O      2.30883    3.23493   -0.20522
S      0.72457   -0.71402   -1.88939
H      4.96665   -3.85536   -3.89583
H      4.07131   -1.97499   -5.25154
H      3.97487   -4.38609   -1.67996
H      2.16837   -0.60733   -4.37617
H      2.07350   -3.01180   -0.80759
H      1.50929    1.16170    4.02258
H     -1.24327   -0.13577    1.15342
H      0.27940    5.66135   -0.77820
H      1.91343    5.40354   -1.41115
H      0.58057    5.79513   -2.51798
H      1.03851    2.20482   -3.29277
H      2.42079    3.22830   -2.80397
H      1.16280    3.86032   -3.87247
H     -1.21800    2.54379   -2.35677
H     -1.56470    3.85402   -1.20333
H     -1.26016    4.21403   -2.90540
H      2.19727    1.14815   -1.77332
H      2.26525    0.16819   -0.29749
H     -0.42713    1.38469   -0.78231
H      0.32731    3.54258    0.31675
H      2.45460    2.92287    0.70947
