46

C     -2.47246   -1.32606    5.13186
C      2.39416    0.01829   -0.68363
C     -2.29311   -0.19857    4.32750
C      1.16995    0.43811   -0.16581
C     -3.31624   -2.36367    4.72405
C      1.24942   -1.47129    1.32356
C      4.58386   -2.73642   -1.46796
C     -3.79121   -1.13395    2.67693
C      5.33762   -0.49204   -1.10038
C      6.69634   -1.89374   -2.29999
C      3.07173   -1.12763   -0.23258
C      2.49226   -1.89166    0.81613
C      4.34527   -1.46952   -0.91690
C     -2.94809   -0.09255    3.09040
C      0.59193   -0.33380    0.85253
C      5.76641   -2.92159   -2.16101
C     -3.97128   -2.24739    3.49730
C      3.09878   -3.06653    1.45361
C     -1.45571    1.05819    1.30243
C     -3.87876    1.82143    1.59320
C     -3.07304    2.47184    2.68172
C     -2.69398    1.07941    2.19049
N      4.36045   -3.51497    1.28491
N      6.48444   -0.68357   -1.76950
N      2.42329   -3.82225    2.35129
N      4.45858   -4.57668    2.09996
N      3.29828   -4.76000    2.73584
N     -0.65363   -0.03170    1.46223
O     -1.23512    1.98682    0.51957
F      6.03361   -4.13001   -2.73344
Cl    -5.04169   -3.53960    2.96689
H     -1.94589   -1.40875    6.07864
H      2.83446    0.59007   -1.49674
H     -1.62965    0.60077    4.64686
H      0.67224    1.32295   -0.53740
H     -3.45578   -3.24714    5.33855
H      0.82079   -2.06706    2.12570
H      3.87765   -3.54998   -1.35252
H     -4.29433   -1.07600    1.71673
H      5.19982    0.49578   -0.66438
H      7.62382   -2.06097   -2.84546
H     -4.86724    1.44793    1.84313
H     -3.74548    2.19572    0.58398
H     -2.40479    3.27705    2.39562
H     -3.50778    2.53451    3.67490
H     -0.95162   -0.71327    2.14909
