43

C      3.19274   -3.88324    1.42476
C      3.99424   -3.36398    0.39950
C      1.80109   -3.77454    1.35840
C      3.40490   -2.72509   -0.69145
C      1.19982   -3.13377    0.27154
C      1.52436   -0.25771    2.24688
C     -0.21237   -0.33132    1.05854
C      2.01232   -2.60678   -0.73018
C      0.95001    4.65061   -1.65627
C      1.39602    2.92414   -3.41386
C     -0.86390    3.04714   -2.30555
C      1.72000   -0.00855   -1.92256
C      0.76850    0.77348   -1.02157
C      1.11457    2.28774   -0.92578
C      0.65338    3.19964   -2.09246
N      0.21891   -0.64850    2.27471
N      1.92003    0.27820    1.09530
N      0.78728    0.21784    0.33454
O      1.92440   -2.21633   -3.35529
O     -0.21123   -1.85756   -1.97832
O      2.51376    2.46198   -0.72708
S      1.25505   -1.76358   -2.12530
H      3.65648   -4.37810    2.27396
H      5.07509   -3.46270    0.44747
H      1.18013   -4.17758    2.15292
H      4.01205   -2.33999   -1.50559
H      0.12207   -3.04332    0.19660
H      2.20149   -0.37086    3.08323
H     -1.20211   -0.50057    0.65560
H      0.43602    4.89497   -0.71938
H      2.02080    4.80308   -1.50444
H      0.60286    5.35223   -2.42201
H      1.04210    2.01428   -3.90826
H      2.47418    2.84304   -3.25236
H      1.22020    3.74762   -4.11390
H     -1.13383    2.06779   -2.71436
H     -1.41941    3.19340   -1.37138
H     -1.21724    3.79886   -3.01867
H      1.69984    0.37233   -2.94209
H      2.74780    0.02512   -1.56184
H     -0.25373    0.63927   -1.37477
H      0.56856    2.64022   -0.03680
H      2.75286    1.95060    0.07054
