48

C      1.32753   -6.23366    8.17839
C      2.39113   -5.57958    8.74058
C      2.38429   -5.72892    6.29084
C      2.04743   -1.51952    2.64462
C      0.18780    0.10352    4.21707
C      1.02438   -1.01670    4.88166
C      0.21880   -3.06818    3.52946
C      0.76546   -0.07231   -0.29805
C      2.10110    1.61641    1.00899
C      0.04816   -0.09028    2.70114
C      0.52182   -4.39906    4.22731
C      2.42926   -3.11587    4.57551
C      1.27645    0.62172   -1.56396
C      2.52692    2.20456   -0.33951
C      1.76926    0.12608    0.84696
C      1.43019   -2.14307    3.90763
C      2.63220   -5.58300    4.80435
N      1.33074   -6.31223    6.80293
N      1.32154   -0.48898    2.10093
N      1.97947   -4.44629    4.17020
O      3.11405   -1.90688    2.16180
O      1.53110    2.00810   -1.34234
S      3.45824   -5.02670    7.49379
H      0.51302   -6.68514    8.73500
H      2.59926   -5.40520    9.78815
H     -0.81476    0.15812    4.65379
H      0.66401    1.07198    4.39855
H      1.93953   -0.58935    5.30550
H      0.47961   -1.46418    5.71972
H      0.17463   -3.21888    2.44716
H     -0.73790   -2.65000    3.85295
H     -0.21006    0.35260   -0.03434
H      0.62424   -1.14230   -0.49013
H      2.90623    1.73977    1.74210
H      1.22823    2.17133    1.37280
H     -0.72947   -0.82841    2.47355
H     -0.27192    0.84595    2.24051
H      0.13643   -4.39439    5.26146
H      0.08561   -5.26360    3.71663
H      3.45378   -2.94060    4.24108
H      2.38114   -2.97470    5.66932
H      2.19642    0.12800   -1.91752
H      0.53561    0.57395   -2.36627
H      2.67752    3.28493   -0.26909
H      3.47557    1.74726   -0.66523
H      2.69077   -0.40168    0.59093
H      3.70719   -5.50966    4.60958
H      2.26782   -6.49798    4.32674
