21

C      0.32091   -1.61777    1.02899
C      0.11756   -0.23858    1.04089
C      0.59260   -2.26078    2.23836
C      0.19626    0.43555    2.26962
C      1.51063   -3.53546    7.25536
C      0.65041   -1.49724    3.41515
C      1.34783   -1.54984    8.17100
C      0.93737   -2.18307    4.68585
N      0.45456   -0.16425    3.43119
N      1.71392   -3.66799    8.53762
N      1.61170   -2.40684    9.12770
N      1.00092   -1.52980    5.78845
N      1.26929   -2.20207    6.94679
S      1.12285    0.17528    8.38625
H      0.26987   -2.18229    0.10200
H     -0.09696    0.31066    0.12892
H      0.75733   -3.33467    2.27253
H      0.04228    1.51294    2.31203
H      1.52739   -4.33807    6.53306
H      1.08915   -3.26423    4.62659
H      0.90060    0.40055    7.07224
