37

C     -3.83037    5.72546    3.28356
C      1.82913    6.33783    2.20869
C      0.63429    5.22644    4.00819
C      3.02094    5.72258    2.59425
C      1.82321    4.58351    4.37766
C      0.62877    6.08465    2.89894
C      3.00775    4.84903    3.68669
C     -1.92032    4.20517    2.90123
C     -0.99413    2.36834    2.19138
C     -2.42807    5.58792    2.97499
C     -0.32284    1.35751    1.32220
C     -1.08043    1.04944    0.01688
C     -1.03180    2.16848   -1.03327
C     -1.72491    3.48405   -0.64739
C     -1.06359    4.26312    0.49457
N     -4.96882    5.80017    3.52036
N     -2.01438    3.31460    3.87089
N     -1.42301    2.15555    3.42443
N     -1.81191    6.71669    2.76062
N     -1.28376    3.65628    1.80959
N     -0.50616    6.83099    2.46509
I      4.69508    3.38993    3.90202
H      1.82992    7.02175    1.36265
H     -0.25710    5.04352    4.59351
H      3.93928    5.93591    2.05654
H      1.80909    3.89481    5.21621
H      0.69782    1.68968    1.08767
H     -0.23202    0.45250    1.92751
H     -0.64036    0.14703   -0.42182
H     -2.12241    0.80482    0.25576
H      0.01717    2.37995   -1.28389
H     -1.49603    1.79815   -1.95448
H     -1.72658    4.14473   -1.52224
H     -2.77504    3.30255   -0.38906
H      0.01604    4.35456    0.32922
H     -1.47123    5.27329    0.53909
H     -0.29212    7.80303    2.27522
