20

C      1.91063   -1.01701   -0.20786
C      0.83555   -0.41578    0.44421
C      2.93445   -1.62293    0.52759
C     -3.47278   -0.22688    0.81501
C     -4.07860    0.64318    1.69293
C      0.77032   -0.38313    1.84879
C      2.86568   -1.60729    1.91468
C      1.80570   -0.98768    2.57643
C     -1.70122    0.29795    2.02746
C     -0.31773    0.34108    2.57558
N     -2.13194   -0.41464    1.01258
O     -0.10570    0.97029    3.60645
F      3.83300   -2.19667    2.64798
F      1.79098   -1.02509    3.91637
S     -2.93507    1.25823    2.82310
H      1.95253   -1.02212   -1.29264
H      0.03861    0.03845   -0.13063
H      3.77840   -2.10887    0.04729
H     -3.97543   -0.75339    0.01093
H     -5.12001    0.93743    1.72492
