31

C     -2.76422    3.36824    1.56154
C     -1.08681   -1.91822    2.49889
C     -0.12179   -1.70521    3.47972
C     -1.35722    0.21922    4.37623
C     -4.11113    0.01825    1.96744
C     -3.96703    3.24905    0.81727
C     -2.34482    0.00546    3.40014
C     -3.58411    0.68467    3.06924
C     -2.18760   -1.05719    2.47462
C     -0.27113   -0.64574    4.39739
C     -5.22708    2.88086    1.24117
C     -5.26068    3.36857   -0.89801
C     -4.12129    1.79061    3.83313
C     -5.92315    3.55809   -2.21494
N     -1.77285    3.46506    2.16862
N     -4.03095    3.54915   -0.55763
N     -5.11542    2.59375    3.63284
N     -3.28556   -1.02067    1.62325
N     -5.80828    2.41237    2.39927
O     -6.06276    2.94611    0.16107
Br     1.09438   -0.39278    5.72323
H     -0.97554   -2.72703    1.78162
H      0.74939   -2.34867    3.53710
H     -1.42399    1.03916    5.08299
H     -5.02617    0.19810    1.42504
H     -3.60855    2.00330    4.77042
H     -6.39955    2.63250   -2.55395
H     -6.69633    4.33123   -2.15564
H     -5.17057    3.86230   -2.94298
H     -3.44196   -1.64640    0.84515
H     -6.75533    2.76850    2.50392
