24

C      1.82919   -1.48908    0.06566
C      1.87212   -0.83279    2.75822
C      0.86085   -0.60400    0.56991
C      2.84469   -1.70261    2.27170
C      0.88180   -0.27889    1.93419
C      2.80658   -2.03067    0.89640
C     -0.12762   -0.06144   -0.44213
C      3.90951   -2.29270    3.15786
C      3.79451   -3.25847   -0.90552
N     -0.11887    0.62750    2.47662
O     -0.11481   -0.43172   -1.60255
O     -1.01004    0.85363   -0.01029
O      3.78104   -2.89255    0.47438
H      1.77686   -1.71821   -0.99137
H      1.87823   -0.57525    3.81580
H      3.86088   -3.38665    3.15204
H      4.90877   -2.02294    2.80027
H      3.80118   -1.94365    4.18791
H      4.63674   -3.94121   -1.02310
H      3.94078   -2.38177   -1.54699
H      2.86670   -3.76817   -1.18987
H      0.31860    1.35502    3.03990
H     -0.76831    0.12715    3.08322
H     -0.85188    1.00426    0.96702
