45   

C       -2.7926435797   -1.1499853151   -0.8874509781
C       -1.7908690847   -0.1097957811   -0.6153850891
C       -0.6460822799   -0.6448743528   -0.0525811289
C       -4.0938192715   -0.9901785742   -1.5270877317
C       -2.3850437099   -2.3895687816   -0.5046179618
C       -4.4824333226   -3.3174969981   -1.2264756126
C       -7.2922861034   -1.8417457363   -1.0625456904
C       -7.9017777202   -0.7340216601   -0.6047004323
C       -2.0295356240    1.3570894309   -0.8871300180
C       -8.6139601185   -0.7484001083    0.7275725271
C       -7.7940173342    0.5871167714   -1.3289489374
C       -0.5642995195   -5.5979686430   -3.2133625356
C        0.6034622904    0.0770999566    0.3753711174
C       -6.2911451490   -1.9302288140   -2.1857226981
C       -2.7649042026   -4.8454094229   -0.2952144119
C       -2.2262247873   -5.6265988807   -1.4943188804
N       -4.9487980327   -2.0732064093   -1.6220291252
N       -3.2132959814   -3.5045451038   -0.6797367368
O       -4.4042564951    0.0810146162   -2.0286897951
O       -5.2124396259   -4.2935003532   -1.3587830781
O        1.7100215397   -0.4734951444   -0.3364618032
O       -1.0690443781   -4.9743421327   -2.0297542121
S       -0.7641638304   -2.3896928950    0.1806367706
H       -7.4694798571   -2.7711997644   -0.5320106932
H       -3.0136643610    1.6508639980   -0.5100606882
H       -1.2916011138    1.9942826215   -0.3971844270
H       -1.9995379331    1.5446142320   -1.9645206758
H       -8.2940296125    0.1014897927    1.3381819338
H       -9.6950701287   -0.6837409705    0.5723204073
H       -8.3949122805   -1.6660917873    1.2822048514
H       -8.4351782253    0.5796687837   -2.2149266616
H       -8.1152986861    1.4082877989   -0.6815220902
H       -6.7679165900    0.7968684071   -1.6336381592
H        0.3495018038   -5.0892903414   -3.5350828056
H       -1.3005003052   -5.5360181710   -4.0210099098
H       -0.3279297049   -6.6497147298   -3.0227263076
H        0.5395105434    1.1475659745    0.1690919169
H        0.7550181573   -0.0524479091    1.4516300410
H       -6.3598479826   -1.0607435003   -2.8472860516
H       -6.5293002727   -2.7945215827   -2.8157498076
H       -3.5995956779   -5.4000855515    0.1460846705
H       -1.9935371138   -4.7930669816    0.4778068382
H       -3.0052409074   -5.7082340779   -2.2598920574
H       -1.9586983206   -6.6372639790   -1.1700106552
H        1.4974900274   -0.5482050058   -1.2841604255
45   

C       -2.8771436141   -1.2079529011   -0.8729150599
C       -1.8975155364   -0.1583255485   -0.5578504329
C       -0.7674101978   -0.6850070536    0.0414862708
C       -4.1809305264   -1.0536213028   -1.5105973935
C       -2.4588655763   -2.4479088191   -0.5004024923
C       -4.5151733367   -3.4016153146   -1.3008084633
C       -7.3296439464   -1.9005556582   -1.1261654184
C       -7.8734741803   -0.7660393769   -0.6482644156
C       -2.1236411183    1.3028703569   -0.8677164732
C       -8.2849444352   -0.6582940078    0.8009652283
C       -7.8854255193    0.4963422757   -1.4745201791
C       -0.5074554893   -5.5904208658   -3.1988822290
C        0.4543300926    0.0428480636    0.5313733026
C       -6.3334065207   -2.0220733350   -2.2529780626
C       -2.8026748460   -4.9132106210   -0.3361209312
C       -2.2169948378   -5.6694012089   -1.5291174159
N       -4.9958130502   -2.1582010500   -1.6797193585
N       -3.2617844166   -3.5743929388   -0.7155013188
O       -4.5469270431    0.0424856744   -1.9119110835
O       -5.2216562389   -4.3881602533   -1.4748135022
O        1.5479755201   -0.2982376703   -0.3181304428
O       -1.0561263372   -4.9910813640   -2.0222936561
S       -0.8630173154   -2.4340769130    0.2410774852
H       -7.4544675723   -2.8005478490   -0.5336530874
H       -2.9663667695    1.6788659138   -0.2796347431
H       -1.2470101963    1.9145260959   -0.6487261045
H       -2.3574251830    1.4272156058   -1.9291784031
H       -7.9384750885    0.2900339745    1.2230207350
H       -9.3748600682   -0.7033010963    0.8835121665
H       -7.8537963850   -1.4725039096    1.3915644075
H       -8.6736575207    1.1689234688   -1.1230489644
H       -6.9270376482    1.0156661022   -1.3869943877
H       -8.0810341009    0.2745256732   -2.5274962335
H        0.4057364004   -5.0617224952   -3.4884389791
H       -1.2218316042   -5.5310163762   -4.0260901771
H       -0.2578108487   -6.6402481690   -3.0146968791
H        0.3054454664    1.1248921110    0.5240885506
H        0.6765462285   -0.2557637697    1.5607003712
H       -6.3857799159   -1.1591514351   -2.9244284134
H       -6.5802826787   -2.8936746872   -2.8693853996
H       -3.6407760154   -5.4869858430    0.0731510847
H       -2.0550485297   -4.8597394854    0.4597606583
H       -2.9722268363   -5.7534700651   -2.3178986041
H       -1.9420650961   -6.6798335172   -1.2103263537
H        1.2708385878   -0.2766768752   -1.2515802481
45   

C       -2.9296984133   -1.2410500405   -0.8746418529
C       -1.9657337035   -0.1866829942   -0.5285132495
C       -0.8401101280   -0.7111209952    0.0811020686
C       -4.2265303807   -1.0898507444   -1.5271467717
C       -2.5046518470   -2.4822968327   -0.5139916473
C       -4.5380636074   -3.4447873330   -1.3608358165
C       -7.3522931982   -1.9263558098   -1.1733119564
C       -7.8220156806   -0.7752251964   -0.6518178656
C       -2.1992687770    1.2766406847   -0.8224370564
C       -7.9168183328   -0.5734496941    0.8415170302
C       -7.9534358822    0.4504864616   -1.5211715655
C       -0.4828604140   -5.5736124245   -3.2189394594
C        0.3661658864    0.0216466196    0.6010438045
C       -6.3611734221   -2.0661127679   -2.3058903756
C       -2.8285696242   -4.9525034255   -0.3851636793
C       -2.2166151691   -5.6897876818   -1.5766632302
N       -5.0245621391   -2.2009924306   -1.7303614542
N       -3.2928655941   -3.6134416850   -0.7573126778
O       -4.6045148897    0.0106630943   -1.9048585542
O       -5.2333960962   -4.4350109249   -1.5568061217
O        1.4777932640   -0.2998813591   -0.2326083407
O       -1.0539535671   -4.9954306400   -2.0424824128
S       -0.9210162905   -2.4638243833    0.2530759372
H       -7.4364800944   -2.8122775396   -0.5531305389
H       -3.0417926325    1.6428063621   -0.2279172413
H       -1.3240298681    1.8893188951   -0.6005629231
H       -2.4363553174    1.4115551919   -1.8818455459
H       -7.4736838478    0.3866926663    1.1230033703
H       -8.9652037610   -0.5828652054    1.1535655085
H       -7.3837645450   -1.3657950188    1.3759192946
H       -8.7718571787    1.0796848718   -1.1585354344
H       -7.0290726710    1.0349460154   -1.4932637626
H       -8.1734374942    0.1772350733   -2.5572817845
H        0.4294176149   -5.0326640488   -3.4880057587
H       -1.1857819773   -5.5094617874   -4.0555537037
H       -0.2261510245   -6.6235185270   -3.0452479168
H        0.2075462349    1.1023519707    0.6036723176
H        0.5727516477   -0.2870542048    1.6306498874
H       -6.4095032093   -1.2048818558   -2.9802399995
H       -6.6154181340   -2.9403436480   -2.9155232969
H       -3.6683156431   -5.5380803055    0.0035338069
H       -2.0947965721   -4.9017800824    0.4236874348
H       -2.9579903543   -5.7713567940   -2.3787465761
H       -1.9378684399   -6.7013503501   -1.2648631550
H        1.2170549478   -0.2704627511   -1.1705576207
45   

C       -2.9899624241   -1.2518462294   -0.8589241028
C       -2.0435694333   -0.1884958670   -0.4924342477
C       -0.9195760355   -0.7036452400    0.1280008310
C       -4.2837186015   -1.1115990696   -1.5203354919
C       -2.5528921174   -2.4906620055   -0.5034085678
C       -4.5595245624   -3.4740654771   -1.3883603204
C       -7.3797965378   -1.9313141983   -1.2037020041
C       -7.7810164913   -0.7606775121   -0.6586433069
C       -2.2865786249    1.2738569028   -0.7830572448
C       -7.5627591681   -0.4541455488    0.8034938741
C       -8.1056438788    0.4064014939   -1.5584969479
C       -0.4629264306   -5.5484239884   -3.1979936116
C        0.2703273865    0.0404800452    0.6690033199
C       -6.3914154749   -2.1092003013   -2.3367333142
C       -2.8489757344   -4.9655062631   -0.3906425144
C       -2.2130286966   -5.6925653829   -1.5757352170
N       -5.0570045198   -2.2340225326   -1.7551681167
N       -3.3225777509   -3.6303700247   -0.7653386917
O       -4.6873762474   -0.0092169068   -1.8659257395
O       -5.2391957758   -4.4715958078   -1.6008868065
O        1.3982691649   -0.2652179443   -0.1485755864
O       -1.0523445995   -4.9836291738   -2.0241113069
S       -0.9799133733   -2.4584785721    0.2846635754
H       -7.4137952016   -2.7914834321   -0.5438705431
H       -3.1178286034    1.6388188984   -0.1722155313
H       -1.4073019977    1.8876815390   -0.5806891650
H       -2.5442553936    1.4079634423   -1.8377110215
H       -6.4924371687   -0.4711478392    1.0304380560
H       -7.9576673712    0.5342209431    1.0576448603
H       -8.0677595118   -1.2002765567    1.4239596526
H       -9.0873014832    0.8133156101   -1.2984955363
H       -7.3545616305    1.1933516974   -1.4353510465
H       -8.1309533542    0.1107941133   -2.6110588206
H        0.4456417571   -4.9954512995   -3.4548505833
H       -1.1581861271   -5.4876213923   -4.0412416327
H       -0.1958920000   -6.5962791980   -3.0275349531
H        0.0990222543    1.1192976277    0.6734855974
H        0.4646375996   -0.2701047003    1.7004404163
H       -6.4311292935   -1.2612726307   -3.0282870107
H       -6.6534317999   -2.9950948466   -2.9258654896
H       -3.6876936917   -5.5611672235   -0.0152177728
H       -2.1269261199   -4.9095533157    0.4283411700
H       -2.9427753143   -5.7803569014   -2.3877697879
H       -1.9269412773   -6.7017649650   -1.2629347071
H        1.1516027889   -0.2361455502   -1.0903242353
45   

C       -3.0264576501   -1.2597710337   -0.8632991089
C       -2.0901764940   -0.1928208910   -0.4817227363
C       -0.9732237138   -0.7037773402    0.1549646721
C       -4.3108373326   -1.1245783946   -1.5440717969
C       -2.5893910352   -2.4969891957   -0.5021128549
C       -4.5796356669   -3.4880501686   -1.4140276562
C       -7.4066680982   -1.9621556499   -1.2489227611
C       -7.7223388319   -0.8104249921   -0.6036181701
C       -2.3372450989    1.2684918665   -0.7738806785
C       -7.2294656337   -0.5097572625    0.7919206408
C       -8.1100562815    0.3874100444   -1.4390583791
C       -0.4575385590   -5.5391162902   -3.1804926544
C        0.2058519431    0.0438201870    0.7149342410
C       -6.4077186245   -2.1315629033   -2.3786375390
C       -2.8753935577   -4.9735435066   -0.3971335208
C       -2.2228419493   -5.6960051021   -1.5760155754
N       -5.0767405255   -2.2500132373   -1.7880888117
N       -3.3502122668   -3.6398130076   -0.7755146531
O       -4.7135707292   -0.0240333622   -1.8967439809
O       -5.2531354679   -4.4881852678   -1.6341047372
O        1.3541366429   -0.2816221664   -0.0659323880
O       -1.0604219999   -4.9810900568   -2.0102082047
S       -1.0284825889   -2.4590474389    0.3090288170
H       -7.4806070402   -2.8613671947   -0.6469602790
H       -3.1842231178    1.6258110867   -0.1803835252
H       -1.4674372723    1.8884276376   -0.5506728134
H       -2.5731171478    1.4031662578   -1.8335701620
H       -6.6253891634    0.4026096831    0.8004339561
H       -8.0792676241   -0.3787020924    1.4679655268
H       -6.6088634368   -1.3303774159    1.1646033848
H       -9.1484143654    0.6603426317   -1.2296588660
H       -7.4696354181    1.2442509696   -1.2072499103
H       -8.0233308989    0.1814501488   -2.5094379026
H        0.4513749152   -4.9817549923   -3.4263982844
H       -1.1448104177   -5.4776336098   -4.0302190928
H       -0.1882269142   -6.5866249190   -3.0114916331
H        0.0411933036    1.1234222155    0.6964539916
H        0.3704422368   -0.2502657479    1.7563366827
H       -6.4512987385   -1.2824785604   -3.0686262237
H       -6.6593816506   -3.0186324401   -2.9705404785
H       -3.7158640847   -5.5733271668   -0.0323147102
H       -2.1630362992   -4.9159694676    0.4301648372
H       -2.9429977204   -5.7859065991   -2.3963499359
H       -1.9357048282   -6.7043856079   -1.2615341490
H        1.1346170811   -0.2633683886   -1.0146600510
45   

C       -3.0643899151   -1.2257905919   -0.9198447143
C       -2.1359521544   -0.1560976556   -0.5272486287
C       -1.0379021366   -0.6609882175    0.1463754124
C       -4.3300174355   -1.0970022030   -1.6364418386
C       -2.6403597898   -2.4589856986   -0.5302198285
C       -4.6088140228   -3.4577121178   -1.4789787358
C       -7.4436038697   -1.9519709347   -1.3959383502
C       -7.6799501561   -0.8742902265   -0.5961909169
C       -2.3731853194    1.3013597156   -0.8451955906
C       -6.9845601792   -0.6726639680    0.7301888047
C       -8.1602868397    0.3829325895   -1.2812420114
C       -0.4492733805   -5.5334447541   -3.1209437875
C        0.1280109657    0.0904487273    0.7286862044
C       -6.4111635456   -2.1132073830   -2.5014135988
C       -2.9330121606   -4.9339556107   -0.4033199291
C       -2.2529785959   -5.6704733348   -1.5578147978
N       -5.0927690744   -2.2237397691   -1.8826010421
N       -3.3962265732   -3.6038359477   -0.8081419521
O       -4.7222815491   -0.0006561044   -2.0131169369
O       -5.2786933925   -4.4595173812   -1.7031900525
O        1.3025937553   -0.2747174822    0.0066400112
O       -1.0791105896   -4.9620704978   -1.9714556376
S       -1.1020009750   -2.4139405913    0.3221997080
H       -7.6311547060   -2.9068640444   -0.9170919188
H       -3.2391692454    1.6655413893   -0.2842002009
H       -1.5115149625    1.9246290365   -0.6010108515
H       -2.5744974959    1.4225359834   -1.9136286810
H       -6.3379085061    0.2096381844    0.6988446657
H       -7.7251493244   -0.5433392898    1.5246680389
H       -6.3627469372   -1.5404477810    0.9704567492
H       -9.2265433068    0.5264412318   -1.0842685984
H       -7.6174587346    1.2605353844   -0.9166443548
H       -8.0126955068    0.3261842322   -2.3640180728
H        0.4667664021   -4.9806971525   -3.3502618775
H       -1.1154514889   -5.4790979205   -3.9877848576
H       -0.1867777655   -6.5797817523   -2.9348111028
H       -0.0203633087    1.1707904403    0.6684231775
H        0.2465770184   -0.1713435792    1.7848680101
H       -6.4547787402   -1.2612471863   -3.1887282157
H       -6.6391560988   -3.0023977250   -3.0997715222
H       -3.7831657200   -5.5285122788   -0.0526274404
H       -2.2410722435   -4.8682678716    0.4405198396
H       -2.9529995963   -5.7686108677   -2.3944796413
H       -1.9752633378   -6.6756933439   -1.2252513059
H        1.1232561985   -0.2807388018   -0.9506652979
45   

C       -2.7033819125   -1.0285848091   -0.3954021200
C       -1.6189880493   -0.0396298265   -0.3159923893
C       -0.4350769177   -0.6195356068    0.1036925303
C       -4.0891849312   -0.8088752535   -0.7992456909
C       -2.3016452224   -2.2794319576   -0.0400024379
C       -4.5155390172   -3.1244291652   -0.4396175400
C       -7.2667905037   -1.3441393991   -0.1030883946
C       -8.4009235497   -0.5940718594   -0.1939306861
C       -1.8027804224    1.4173235194   -0.6697636774
C       -9.7661127209   -1.1833961121   -0.4744361635
C       -8.2240146383    0.8724063365   -0.5066846129
C       -1.0054430335   -5.6638223721   -2.8638736441
C        0.8979872002    0.0391719190    0.3307524371
C       -6.3512485593   -1.6852881003   -1.2584106772
C       -2.7559540142   -4.7101648614    0.2938007185
C       -2.4286498507   -5.5446599000   -0.9458520161
N       -4.9789183293   -1.8671441579   -0.7942325201
N       -3.1950588537   -3.3570538741   -0.0587516412
O       -4.4640877761    0.2991510315   -1.1589617032
O       -5.2956226182   -4.0698990675   -0.4562275119
O        1.8062165548   -0.4331645891   -0.6624278873
O       -1.3319796925   -4.9634625727   -1.6604579797
S       -0.6019495368   -2.3476085203    0.4100550924
H       -7.3531323018   -2.1943041459    0.5647672902
H       -2.4878740400    1.8869105093    0.0425450857
H       -0.8608762392    1.9681144181   -0.6625494775
H       -2.2296252073    1.5062887111   -1.6731622806
H      -10.5082391181   -0.3991805709   -0.6525006227
H       -9.7204831736   -1.8299701290   -1.3558963035
H      -10.0953127371   -1.7805620409    0.3810237648
H       -8.8928978293    1.1793419293   -1.3168538048
H       -8.4469511273    1.4716330508    0.3805684378
H       -7.1970357711    1.0887023858   -0.8192360338
H       -0.1193088027   -5.2139050606   -3.3217739937
H       -1.8341504315   -5.6046503479   -3.5765107443
H       -0.7898408967   -6.7157850934   -2.6508513182
H        0.8218037515    1.1272320383    0.2731905407
H        1.2724293311   -0.2161967239    1.3270715288
H       -6.4065805520   -0.9026141782   -2.0233420831
H       -6.7132474551   -2.5969624095   -1.7466493224
H       -3.5435095034   -5.2140738757    0.8638448604
H       -1.8811510757   -4.6789583284    0.9487445075
H       -3.3112119478   -5.6069031547   -1.5914131346
H       -2.1637783973   -6.5593304322   -0.6318038715
H        1.3776664595   -0.4402041059   -1.5369671071
45   

C       -2.7104569277   -1.0484568853   -0.4347692263
C       -1.6316846043   -0.0549120235   -0.3372387974
C       -0.4514885466   -0.6305989906    0.0984810027
C       -4.0903568823   -0.8341954844   -0.8610890010
C       -2.3088270525   -2.2981392358   -0.0755785256
C       -4.5139068692   -3.1507794293   -0.5069203737
C       -7.2821257198   -1.4247477250   -0.2036384064
C       -8.3521866338   -0.5912627550   -0.2664945321
C       -1.8180527762    1.4024197192   -0.6882171615
C       -9.7753604488   -1.0971456640   -0.3293707029
C       -8.1215160345    0.8359864629   -0.7029111294
C       -0.9683638804   -5.6645355454   -2.8986291886
C        0.8753526227    0.0331155371    0.3467673284
C       -6.3444621395   -1.7197311094   -1.3495399044
C       -2.7572455582   -4.7317759077    0.2437253790
C       -2.4118222403   -5.5604447392   -0.9949489917
N       -4.9775131698   -1.8947489152   -0.8661767224
N       -3.1975399233   -3.3792041859   -0.1094014380
O       -4.4605386061    0.2707525443   -1.2344516123
O       -5.2895932463   -4.0996476040   -0.5363592180
O        1.8007740831   -0.4348044991   -0.6325269684
O       -1.3091851499   -4.9722280323   -1.6944989828
S       -0.6155366938   -2.3600216981    0.3989387903
H       -7.4298544600   -2.3045646462    0.4132718506
H       -2.5268240060    1.8621435903    0.0071734004
H       -0.8818991712    1.9616627902   -0.6510570586
H       -2.2177734061    1.4930599919   -1.7025908678
H      -10.4826448398   -0.2688518991   -0.4355240183
H       -9.8948837055   -1.7722739377   -1.1820321445
H      -10.0182088107   -1.6426812205    0.5873152681
H       -8.7824358093    1.0923851840   -1.5368326005
H       -8.3268279542    1.5150054084    0.1295937096
H       -7.0883571604    0.9970029712   -1.0250626331
H       -0.0786549887   -5.2097096078   -3.3445931418
H       -1.7897489113   -5.6031319693   -3.6195121901
H       -0.7523561418   -6.7172305719   -2.6896710987
H        0.7961285325    1.1209053436    0.2888150051
H        1.2352458727   -0.2216566734    1.3485845433
H       -6.3988479840   -0.9263273720   -2.1029499143
H       -6.6822990157   -2.6273934043   -1.8619967546
H       -3.5495300782   -5.2408035232    0.8025483151
H       -1.8904035828   -4.6994715094    0.9091083500
H       -3.2864468837   -5.6240245117   -1.6510996780
H       -2.1464408760   -6.5751436399   -0.6814389169
H        1.3862887283   -0.4415393159   -1.5138260883
45   

C       -2.7442718469   -1.0450151888   -0.4306134322
C       -1.6735324140   -0.0445505448   -0.3154755955
C       -0.5006771216   -0.6103262111    0.1519092750
C       -4.1136257011   -0.8421585602   -0.8943598645
C       -2.3450127094   -2.2893763506   -0.0516392681
C       -4.5359157929   -3.1562529162   -0.5261918882
C       -7.3268703128   -1.5100313932   -0.2841902109
C       -8.3277996070   -0.6008733767   -0.2881335321
C       -1.8613984496    1.4096694897   -0.6787178490
C       -9.7770317908   -0.9995108564   -0.1330395164
C       -8.0563000712    0.7997760683   -0.7809505950
C       -0.9333306227   -5.6570703189   -2.8309632327
C        0.8167150374    0.0622732367    0.4257242395
C       -6.3571727435   -1.7427652317   -1.4155981647
C       -2.7876776648   -4.7230834468    0.2725060515
C       -2.4114273376   -5.5564915976   -0.9539115701
N       -4.9981057640   -1.9052220002   -0.9045801704
N       -3.2274439470   -3.3750718267   -0.0979773693
O       -4.4743081935    0.2548202272   -1.2985325187
O       -5.3052964370   -4.1098766440   -0.5678789261
O        1.7673133163   -0.4094241323   -0.5272731457
O       -1.2977519553   -4.9654930468   -1.6333663252
S       -0.6628477652   -2.3382152611    0.4625035394
H       -7.5214316937   -2.4140148578    0.2829148057
H       -2.6038113911    1.8632082593   -0.0150675103
H       -0.9345795975    1.9803913066   -0.6032915823
H       -2.2197114721    1.4925619473   -1.7091187090
H      -10.4254035920   -0.1179478494   -0.1254377173
H      -10.0768265469   -1.6476874237   -0.9619269894
H       -9.9187923968   -1.5413923838    0.8067961706
H       -8.5969210509    0.9810457223   -1.7151194051
H       -8.3910882668    1.5267684366   -0.0351775196
H       -6.9900694196    0.9669277430   -0.9564073972
H       -0.0391560702   -5.1975160154   -3.2629253061
H       -1.7431681084   -5.6013276004   -3.5652562289
H       -0.7146466629   -6.7082186453   -2.6171035926
H        0.7340210758    1.1490877150    0.3561799083
H        1.1540074441   -0.1819473593    1.4379745680
H       -6.4133474830   -0.9295938452   -2.1472985094
H       -6.6593570566   -2.6425452925   -1.9630753387
H       -3.5890132624   -5.2332150954    0.8172246479
H       -1.9353569082   -4.6822102223    0.9559338832
H       -3.2717359175   -5.6289119339   -1.6278372440
H       -2.1466496164   -6.5678195670   -0.6292481118
H        1.3742903568   -0.4244019679   -1.4182599588
45   

C       -2.7081053929   -1.1038399221   -0.5708652331
C       -1.6417109974   -0.1034491413   -0.4203794420
C       -0.4801143025   -0.6723210650    0.0706510912
C       -4.0663947411   -0.8978095905   -1.0647013335
C       -2.3167740509   -2.3512630480   -0.1935404577
C       -4.4951247443   -3.2154862801   -0.7271565585
C       -7.2849762164   -1.6028919288   -0.5073886239
C       -8.2142093244   -0.6281207268   -0.4328694689
C       -1.8215096855    1.3538435324   -0.7752929438
C       -9.6361699694   -0.9280679397   -0.0197569185
C       -7.9076596128    0.7461446264   -0.9755090661
C       -0.8510906578   -5.6920542985   -2.9762445162
C        0.8289410568   -0.0005346044    0.3833621384
C       -6.3013169311   -1.7928653341   -1.6318915110
C       -2.7651157624   -4.7880181079    0.0991131471
C       -2.3628201123   -5.6118013604   -1.1254362021
N       -4.9497223703   -1.9611649195   -1.1035394702
N       -3.1968052097   -3.4372032800   -0.2705316538
O       -4.4185239825    0.2025275424   -1.4674926949
O       -5.2623673745   -4.1692887646   -0.7959770084
O        1.8009359375   -0.4540924080   -0.5567354127
O       -1.2353036306   -5.0151376948   -1.7764869845
S       -0.6475767940   -2.4031914364    0.3610225422
H       -7.5035215067   -2.5165036080    0.0350767548
H       -2.5759204488    1.8027575374   -0.1221140073
H       -0.8955625128    1.9227423460   -0.6780825609
H       -2.1600404683    1.4456015609   -1.8116035273
H      -10.1883842820   -0.0060296280    0.1851231868
H      -10.1487233497   -1.4722185927   -0.8186582501
H       -9.6452824163   -1.5420293369    0.8859494527
H       -8.1182304370    0.7815778708   -2.0486277166
H       -8.5179411247    1.5037976141   -0.4752377582
H       -6.8568520748    1.0012595376   -0.8112805284
H        0.0501638330   -5.2274898945   -3.3876246569
H       -1.6485928572   -5.6271490315   -3.7231883229
H       -0.6361401708   -6.7457856562   -2.7715328311
H        0.7439582693    1.0870360876    0.3296220550
H        1.1454476271   -0.2599900609    1.3985333250
H       -6.3515867006   -0.9571113928   -2.3379693788
H       -6.5879396760   -2.6778986985   -2.2108748084
H       -3.5780043121   -5.3020965279    0.6225967019
H       -1.9275481605   -4.7526541457    0.8008311481
H       -3.2087682016   -5.6792247532   -1.8178163806
H       -2.1044476383   -6.6255420554   -0.8031798515
H        1.4262706348   -0.4577184956   -1.4557110138
45   

C       -2.7143945445   -1.1471648622   -0.6605442395
C       -1.6589898939   -0.1404843437   -0.4776799869
C       -0.5063719036   -0.7043238321    0.0394768631
C       -4.0616626659   -0.9471483490   -1.1859039171
C       -2.3241189797   -2.3940944413   -0.2805953539
C       -4.4820643467   -3.2700191253   -0.8750354931
C       -7.2827707336   -1.7144298619   -0.6877526828
C       -8.1476402178   -0.6959022256   -0.5233769872
C       -1.8384453528    1.3175093866   -0.8299954381
C       -9.4861390029   -0.9135484976    0.1424298470
C       -7.9008522793    0.6381742695   -1.1836144016
C       -0.7784096225   -5.7055187291   -3.0506936102
C        0.7894938616   -0.0251128015    0.3887166485
C       -6.2804994148   -1.8518735650   -1.8024154655
C       -2.7636609186   -4.8351511006   -0.0117852091
C       -2.3271407818   -5.6506359945   -1.2300251966
N       -4.9364273949   -2.0162467646   -1.2534093807
N       -3.1945155406   -3.4854071224   -0.3860383556
O       -4.4115449032    0.1538747251   -1.5886121218
O       -5.2401099073   -4.2288908158   -0.9703524271
O        1.7851417859   -0.4577328384   -0.5363513035
O       -1.1885222242   -5.0434333065   -1.8512849840
S       -0.6691180389   -2.4379191214    0.3157731028
H       -7.4835173587   -2.6303944251   -0.1424267598
H       -2.6066071876    1.7606623682   -0.1890259080
H       -0.9165894082    1.8895662443   -0.7138828168
H       -2.1580309556    1.4123033979   -1.8720223561
H       -9.4776383574   -0.4780477025    1.1460070200
H      -10.2813532422   -0.4389152076   -0.4404937123
H       -9.7140894102   -1.9806881608    0.2255663974
H       -8.1135720108    0.5771393772   -2.2549455574
H       -8.5461883269    1.4056850854   -0.7457537532
H       -6.8631830898    0.9523281392   -1.0403673459
H        0.1277912947   -5.2318849866   -3.4402669707
H       -1.5622104313   -5.6369005953   -3.8116866523
H       -0.5616665370   -6.7601998058   -2.8529259275
H        0.6953613725    1.0622825028    0.3471712589
H        1.0868458687   -0.2947916245    1.4070087262
H       -6.3285452313   -0.9986367053   -2.4866709265
H       -6.5426270956   -2.7240629336   -2.4116965725
H       -3.5858238015   -5.3563639937    0.4897050174
H       -1.9433711220   -4.7979592820    0.7099594755
H       -3.1560902283   -5.7203855117   -1.9424548902
H       -2.0696358129   -6.6641235343   -0.9063378949
H        1.4288807265   -0.4550596165   -1.4427782629
45   

C       -2.7636109565   -1.1332152172   -0.6899374234
C       -1.7149827543   -0.1237417480   -0.4845717117
C       -0.5802496369   -0.6805445508    0.0777985763
C       -4.0913268488   -0.9407544319   -1.2651648895
C       -2.3869816020   -2.3747659787   -0.2803362369
C       -4.5258832780   -3.2573944453   -0.9316242220
C       -7.3275325407   -1.7459217937   -0.8162425047
C       -8.1083718024   -0.6834408693   -0.5526333103
C       -1.8847131478    1.3302103927   -0.8580088775
C       -9.3150390816   -0.8215869331    0.3455696523
C       -7.8784862739    0.6453547604   -1.2301239161
C       -0.7604531514   -5.7107446848   -2.9649032305
C        0.7035549176    0.0031471663    0.4613283209
C       -6.3021051296   -1.8484510757   -1.9141510673
C       -2.8360435595   -4.8120946588    0.0038659228
C       -2.3611343861   -5.6414451063   -1.1902800369
N       -4.9681082403   -2.0080510355   -1.3382619310
N       -3.2541870579   -3.4670707052   -0.4003199865
O       -4.4202640116    0.1514726757   -1.7070796428
O       -5.2806261369   -4.2175630125   -1.0396717371
O        1.7293521009   -0.4421944691   -0.4238694840
O       -1.2032961688   -5.0408030744   -1.7816637201
S       -0.7526987651   -2.4104451413    0.3712172337
H       -7.5411565933   -2.6719531775   -0.2932020488
H       -2.6866074704    1.7739807166   -0.2602067805
H       -0.9737153821    1.9094472190   -0.6998269765
H       -2.1524657715    1.4140644586   -1.9154786079
H       -9.0884068677   -0.4186801243    1.3371959309
H      -10.1642811976   -0.2720939573   -0.0719832468
H       -9.6074244525   -1.8708427025    0.4517929324
H       -8.1732105124    0.5910081517   -2.2821285872
H       -8.4687013799    1.4290850638   -0.7457721850
H       -6.8267215032    0.9354842374   -1.1649600357
H        0.1561538095   -5.2395873160   -3.3325043225
H       -1.5229946262   -5.6472590970   -3.7476359886
H       -0.5493834143   -6.7640372121   -2.7540912976
H        0.6119468062    1.0898849446    0.4017916285
H        0.9663461241   -0.2527768634    1.4925915752
H       -6.3482595146   -0.9826234902   -2.5824505287
H       -6.5396199171   -2.7122419232   -2.5451125167
H       -3.6739337432   -5.3274136083    0.4850048126
H       -2.0391402047   -4.7661965502    0.7508717774
H       -3.1671053232   -5.7196184073   -1.9277725466
H       -2.1139423171   -6.6510154356   -0.8469637019
H        1.4038807142   -0.4509046696   -1.3417788038
45   

C       -2.7799922770   -1.1833830039   -0.7853643982
C       -1.7499496469   -0.1633665840   -0.5418418949
C       -0.6257535034   -0.7112988284    0.0495952518
C       -4.0907719906   -1.0021986841   -1.4011549556
C       -2.4022046625   -2.4231316648   -0.3719443211
C       -4.5149149774   -3.3224956925   -1.0836996384
C       -7.3203996105   -1.8454659142   -0.9846058824
C       -8.0217109775   -0.7610218053   -0.6115480515
C       -1.9285066162    1.2920500788   -0.9054732392
C       -9.0249901880   -0.8520178598    0.5144042567
C       -7.8546993985    0.5666475623   -1.3098966439
C       -0.6659244043   -5.7201042118   -3.0297948758
C        0.6382602495   -0.0159876150    0.4755881267
C       -6.2898281333   -1.9207724633   -2.0803237316
C       -2.8337823463   -4.8663545860   -0.1147660432
C       -2.3162867174   -5.6823480535   -1.3002051791
N       -4.9589148356   -2.0750766880   -1.4944706266
N       -3.2544703767   -3.5233348491   -0.5227487348
O       -4.4103302839    0.0849461346   -1.8615881686
O       -5.2582129916   -4.2888014680   -1.2139129222
O        1.6928700752   -0.4381795459   -0.3867387337
O       -1.1483054003   -5.0653651038   -1.8535808962
S       -0.7871257592   -2.4450415467    0.3265219583
H       -7.5205201816   -2.7793424860   -0.4702036781
H       -2.7666275513    1.7133606124   -0.3420521998
H       -1.0379560976    1.8861651682   -0.6949269915
H       -2.1466360743    1.3845074449   -1.9735762922
H       -8.5723150020   -0.4967605583    1.4449846288
H       -9.9029832305   -0.2375423164    0.2928754850
H       -9.3598609309   -1.8839368457    0.6583756320
H       -8.2894787706    0.5232492048   -2.3126074191
H       -8.3568519268    1.3606742101   -0.7491449423
H       -6.7993993315    0.8376133349   -1.3868112979
H        0.2550337807   -5.2357230687   -3.3681729673
H       -1.4074844332   -5.6581795283   -3.8325521382
H       -0.4489225156   -6.7727808117   -2.8219965234
H        0.5345094950    1.0701223181    0.4256258238
H        0.8765717392   -0.2804753931    1.5106321439
H       -6.3420503237   -1.0433219150   -2.7329232954
H       -6.5142600900   -2.7766179368   -2.7267110752
H       -3.6793003465   -5.3937441530    0.3391757402
H       -2.0589164152   -4.8168177354    0.6548607099
H       -3.0999865203   -5.7634545128   -2.0610240680
H       -2.0683406099   -6.6916810060   -0.9567655507
H        1.3920409810   -0.4402590548   -1.3130700003
