27

C     -2.10321    1.27066   -1.59504
C     -1.76314    2.25906   -0.66277
C     -1.37143    0.08332   -1.65436
C     -0.69779    2.07157    0.22316
C     -0.30527   -0.09460   -0.77248
C      0.02804    0.88578    0.16774
C      1.35289   -1.56436    0.16298
C      1.39628   -0.63895    1.36999
C      0.46800   -1.10929    2.50591
C      0.75492   -2.54002    2.96627
N      0.50975   -1.26471   -0.81145
N      2.15127   -2.62362    0.14772
O      1.12763    0.70400    0.97820
O      2.18635   -2.73647    2.98365
H     -2.93451    1.42344   -2.27541
H     -2.33307    3.18207   -0.62189
H     -1.62454   -0.68835   -2.37772
H     -0.41773    2.82984    0.94767
H      2.42304   -0.62569    1.73520
H     -0.57963   -1.02917    2.19808
H      0.62842   -0.40521    3.32690
H      0.33165   -2.69531    3.96245
H      0.29573   -3.27127    2.28839
H      0.43634   -1.86273   -1.63136
H      2.61567   -2.87386    1.02734
H      2.13837   -3.30809   -0.60217
H      2.41593   -3.41092    3.64241
