67

C      7.62714   -5.11710   -2.06952
C      6.37611   -4.50340   -2.00074
C      4.38968   -2.19934    0.14967
C      4.01613   -2.61646   -2.19525
C      3.14908   -1.57942    0.23947
C      2.77710   -1.98288   -2.10951
C      8.68701   -4.65881   -1.28340
C      7.24723   -2.91643   -0.39569
C      1.18365    0.69144   -2.79879
C     -1.49151    0.26912   -3.43526
C      4.84817   -2.73345   -1.07049
C      6.17072   -3.39648   -1.15725
C      2.32202   -1.45252   -0.89088
C      0.40618   -0.16489   -2.00676
C     -0.94241   -0.39042   -2.33407
C      8.49252   -3.55261   -0.44444
C      0.63002    1.34981   -3.89495
C     -0.72900    1.14842   -4.20846
C      0.99521   -0.79351   -0.79688
C     -1.01119    0.61938    1.64071
C     -1.74273   -1.34179   -1.48571
C     -2.01891   -0.79713   -0.07664
C     -2.52273   -1.90687    0.85389
C      0.02796    1.51893    3.66092
C      1.73517    1.74634   -5.95010
C     -1.45296    3.19124   -5.17063
C      8.95158   -4.61393    2.56294
N      0.43273   -0.78095    0.37213
N     -0.81360   -0.11853    0.46092
N      9.57451   -3.05473    0.34013
N      0.12787    0.89184    2.35168
O     -2.12781    1.04117    1.95372
O     10.79526   -2.68902    2.49896
O      8.31878   -2.06146    2.33701
O      1.42045    2.21233   -4.62723
O     -1.31976    1.76207   -5.29017
S      9.43500   -2.95442    2.03210
H      7.77374   -5.97528   -2.71978
H      5.55009   -4.90052   -2.58295
H      5.00544   -2.28853    1.04035
H      4.35123   -2.99793   -3.15567
H      2.80426   -1.19001    1.19118
H      2.15720   -1.90106   -2.99669
H      9.65479   -5.15453   -1.31982
H      7.13468   -2.03656    0.22634
H      2.22986    0.86928   -2.56866
H     -2.53275    0.12083   -3.70958
H     -2.70331   -1.56760   -1.95715
H     -1.20359   -2.29303   -1.39937
H     -2.77064   -0.00849   -0.13924
H     -1.74920   -2.66896    0.99656
H     -3.40636   -2.39100    0.42288
H     -2.80014   -1.49330    1.82557
H      1.01804    1.87375    3.95869
H     -0.35380    0.83263    4.42836
H     -0.65116    2.37058    3.59998
H      2.36210    2.51703   -6.40261
H      0.82850    1.60473   -6.54652
H      2.29420    0.80384   -5.89825
H     -1.94716    3.52454   -6.08495
H     -0.47612    3.67342   -5.07429
H     -2.07596    3.44063   -4.30377
H      8.79044   -4.56290    3.64108
H      8.02869   -4.88951    2.05122
H      9.76104   -5.30596    2.32741
H     10.49079   -3.42486    0.09664
H      0.92403    0.30105    2.14596
