70

C     -1.71245    3.40883    0.55731
C     -0.63681    3.91452   -0.19322
C     -1.74173    2.05923    0.88610
C      0.38887    3.07465   -0.62536
C     -0.71068    1.19641    0.46884
C      0.34617    1.71374   -0.29841
C     -0.70517   -0.22044    0.88613
C      0.51845   -1.07003    0.49603
C      1.16597   -0.50359   -0.81870
C      2.56834   -1.05588   -1.08297
C      1.37936    1.00993   -7.59084
C     -1.89125   -0.69777   -7.10935
C     -1.29475   -5.96072    2.20266
C      4.03503    1.54715    3.78884
C      0.06472   -2.53195    0.21759
C      1.49534   -1.06766    1.70227
C      0.22425   -0.75628   -2.02618
C      0.55763    0.07619   -3.27188
C      1.03942    0.08488   -6.43072
C     -1.45480    0.62528   -6.49739
C     -0.39505   -0.31253   -4.39933
C     -0.29484   -3.40058    1.42459
C      2.07537    0.28541    2.13427
N     -0.18970    0.52599   -5.65263
O     -1.60921   -0.69357    1.56542
O     -2.09987   -4.73459   -0.02697
O      0.28584   -5.62770    0.07622
O      3.06943   -0.87848    4.33023
O      4.56726   -0.58510    2.27879
O      1.38435    0.93680   -0.72359
S     -0.86784   -4.99350    0.74202
S      3.52046   -0.07344    3.18412
H     -2.50569    4.07199    0.88846
H     -0.59896    4.97235   -0.43953
H     -2.54578    1.63824    1.48221
H      1.23144    3.45470   -1.19632
H      2.97316   -0.62968   -2.00416
H      2.55777   -2.14243   -1.18680
H      3.25862   -0.79471   -0.27954
H      0.64554    0.96365   -8.39814
H      1.48505    2.05043   -7.26567
H      2.34175    0.69985   -8.00599
H     -1.16848   -1.08330   -7.83206
H     -2.08395   -1.46372   -6.35464
H     -2.82755   -0.52665   -7.64688
H     -1.64031   -6.92790    1.83272
H     -0.40376   -6.08755    2.81935
H     -2.09437   -5.45318    2.74406
H      4.93207    1.37299    4.38619
H      4.26667    2.19033    2.93849
H      3.24142    1.96425    4.41045
H      0.85818   -3.04969   -0.32637
H     -0.81492   -2.51084   -0.42815
H      2.31297   -1.75581    1.47123
H      0.97041   -1.48568    2.56206
H      0.26992   -1.81825   -2.28025
H     -0.81237   -0.54981   -1.73972
H      0.44766    1.14193   -3.04253
H      1.59679   -0.08943   -3.56665
H      1.85526    0.05610   -5.70829
H      0.84784   -0.93605   -6.76210
H     -2.22091    1.02431   -5.82896
H     -1.25938    1.37492   -7.26491
H     -0.27628   -1.35686   -4.69263
H     -1.43160   -0.16140   -4.08992
H      0.56228   -3.63070    2.06047
H     -1.11113   -2.97358    2.00696
H      2.45436    0.88091    1.30534
H      1.36306    0.87128    2.72043
H      0.00181    1.48009   -5.32883
