62

C      1.58787    5.87236    1.65224
C     -1.86114    1.87699    8.19122
C      2.90618    6.32053    1.73379
C     -1.62262    1.78319    6.82048
C      2.32113    3.71424    2.47353
C     -4.01962    1.72608    6.38695
C      1.29165    4.55165    2.01510
C     -3.17549    1.90451    8.66692
C     -4.23942    1.82683    7.76336
C      3.94974    5.49701    2.17296
C      3.64157    4.16889    2.56737
C     -2.69722    1.70830    5.91667
C     -1.85350    2.83140    1.99280
C     -2.22110    4.08077    1.58045
C     -0.06514    4.02147    1.94126
C     -3.37391    2.93791   12.43590
C     -5.56070    1.82960    8.50348
C     -5.17640    2.36327    9.90343
C     -3.68709    1.97518   10.09556
C      5.36761    6.01445    2.17132
C     -3.50537    4.72455    1.19515
C      4.46289    1.88029    2.86952
C      5.21379    3.63790    4.34201
C     -2.71348    1.62800    2.23930
C     -2.90579    2.94137   10.98653
C     -3.37827    1.63220    3.61627
N     -0.47820    2.81387    2.21461
N      4.69289    3.31405    3.01127
O     -4.11056    2.11598   12.92791
O     -1.07833    4.85688    1.54436
O     -2.87353    3.95012   13.21022
O     -2.34659    1.61814    4.59701
H      0.80199    6.53071    1.29636
H     -1.01504    1.93052    8.87333
H      3.14026    7.33614    1.42152
H     -0.61369    1.77227    6.41892
H      2.05943    2.70282    2.76139
H     -4.86178    1.66492    5.70542
H     -6.32892    2.43674    8.01346
H     -5.95403    0.80637    8.57044
H     -5.26052    3.45747    9.90428
H     -5.80972    1.98115   10.70580
H     -3.63325    0.98021   10.55616
H      5.63885    6.47519    3.12950
H      6.07512    5.20147    1.98702
H      5.49684    6.77906    1.39984
H     -3.77957    5.52541    1.89163
H     -3.44779    5.16039    0.19153
H     -4.30718    3.98206    1.19963
H      5.41384    1.35781    3.01642
H      4.10194    1.65835    1.86234
H      3.74108    1.47222    3.59814
H      6.15032    3.09518    4.50881
H      4.50428    3.36232    5.14161
H      5.42030    4.70486    4.42812
H     -3.50778    1.56346    1.48686
H     -2.09606    0.73062    2.14385
H     -1.83961    2.67783   10.99497
H     -2.96815    3.95838   10.57704
H     -3.99889    2.53073    3.73753
H     -4.02157    0.74794    3.72863
H     -2.30689    4.52754   12.67078
