56

C      3.72518   -0.80825   -0.50796
C      2.64802   -0.96491    0.36341
C     -3.16747    1.38687    0.08577
C     -1.95925    2.61938    1.74405
C      1.12337   -0.41373   -1.44798
C     -2.20001    0.38533    0.08846
C      3.53383   -0.44332   -1.84392
C     -3.08641    2.49871    0.93349
C     -0.95190    1.64754    1.75653
C      2.22443   -0.24722   -2.30685
C      1.34946   -0.77076   -0.10593
C     -1.08555    0.48723    0.95639
C     -0.27224   -0.13802   -1.90244
C     -2.35943   -0.73750   -0.91690
C     -4.17694    3.54077    0.95164
C      5.08227    3.67380   -2.25785
C      4.23206    2.53651   -4.34689
C      1.33044    2.26172    1.97232
C      1.50584   -0.88198   -4.48045
C      5.34626    1.18253   -2.49440
C      4.72804   -0.20693   -2.74320
C      4.46032    2.39383   -2.83507
O     -0.65665    0.82965   -2.52117
O      0.76810   -0.74564    2.45279
O     -0.73946   -2.16138    1.02146
O     -1.07297   -1.12920   -1.43120
O      5.68340   -1.23935   -2.44335
O      0.09735    1.88570    2.59941
O      2.03675    0.13324   -3.61448
S      0.04247   -0.93194    1.19131
H      4.73731   -0.97839   -0.15485
H      2.80707   -1.20879    1.40801
H     -3.99512    1.30982   -0.61555
H     -1.82164    3.48151    2.39104
H     -2.74460   -1.64650   -0.45436
H     -3.01535   -0.41925   -1.72997
H     -4.97510    3.24579    1.64323
H     -3.79775    4.51215    1.27991
H     -4.62764    3.66304   -0.03747
H      6.07314    3.85931   -2.69092
H      4.45667    4.54612   -2.47573
H      5.20000    3.60655   -1.17045
H      5.18625    2.67244   -4.87206
H      3.72566    1.66277   -4.76341
H      3.60647    3.40934   -4.56192
H      2.06894    2.32126    2.77257
H      1.22395    3.23925    1.48481
H      1.65940    1.52223    1.23803
H      1.42021   -0.42281   -5.46625
H      0.51612   -1.21459   -4.15219
H      2.18496   -1.74194   -4.52365
H      6.27331    1.25236   -3.08405
H      5.64158    1.22194   -1.43877
H      4.41101   -0.28917   -3.78750
H      3.48334    2.25180   -2.35666
H      6.50083   -1.02998   -2.92238
