39

C      2.98605    3.75192    0.02334
C      1.76402    3.96691    0.66876
C      3.01901    3.25539   -1.28541
C      0.56579    3.67582    0.01110
C      1.82916    2.96326   -1.95355
C     -2.63439   -2.55312    0.00300
C     -3.27656   -0.56186    0.23787
C      0.61894    3.17154   -1.28987
C      0.32945    0.21813    0.16866
C      1.62197   -0.90107    2.03842
C      1.85234    0.56915    2.15039
C      0.49610    0.05534    1.64186
C     -0.69983    0.16510    2.57042
C     -1.04150    0.92431   -1.86676
C     -1.08220    0.55503   -0.38211
N     -3.72800   -1.80352    0.33732
N     -1.54511   -1.85319   -0.29427
N     -1.97300   -0.56863   -0.13483
O      1.26689    0.13249   -0.60885
O     -2.01970    3.32571   -1.33535
O     -0.77668    2.95771   -3.55377
S     -0.91475    2.72562   -2.10939
H      3.91595    3.97568    0.53940
H      1.74199    4.36255    1.68037
H      3.97050    3.09410   -1.78389
H     -0.39576    3.85352    0.48252
H      1.83525    2.58082   -2.96922
H     -2.63856   -3.63509   -0.02138
H     -3.83302    0.34885    0.42095
H      2.10752   -1.42776    1.22419
H      1.45310   -1.47755    2.94297
H      1.84274    1.03056    3.13354
H      2.49120    1.04005    1.41185
H     -0.36435    0.12325    3.61065
H     -1.40852   -0.65402    2.42317
H     -1.23427    1.11378    2.44724
H     -1.98378    0.67361   -2.36021
H     -0.20693    0.44951   -2.38266
H     -1.49417    1.39293    0.18774
