49

C      1.03235    0.29929    4.80768
C      3.32803   -0.25118    4.39370
C      1.82105    0.08328    2.52766
C      2.29911    0.00347    5.30983
C      0.77380    0.34126    3.43051
C      3.11566   -0.21669    3.01388
C      1.72330   -1.19834    0.26779
C      2.35816    1.14533    0.20994
C      1.06618   -1.06563   -2.19854
C      1.73013    1.25571   -2.27000
C      1.57357    0.11927    1.03906
C      2.19905   -0.90731   -1.15328
C      2.61419    0.58703   -1.18850
C      1.31663    0.09544   -3.18023
C      2.55826   -0.06626    6.79710
C     -1.40727   -0.67503    2.60980
C      5.59039   -0.92144    2.67082
C     -0.16755   -0.47044   -4.94896
C     -0.64787    0.61324    2.97878
C      4.25853   -0.49040    2.04875
O      1.46533   -2.30373    0.69981
O      2.69292    2.24950    0.58702
O      0.19277    0.47817   -3.95379
H      0.21805    0.50319    5.50075
H      4.31704   -0.47947    4.77878
H      1.07116   -2.05545   -2.65889
H      0.08077   -0.91730   -1.74050
H      0.82078    1.68337   -1.83274
H      2.24529    2.05760   -2.80126
H      0.52804    0.40116    0.85124
H      3.02842   -1.58153   -1.38279
H      3.67407    0.72308   -1.41973
H      2.15318   -0.16941   -3.84965
H      2.59439   -1.10734    7.14050
H      3.51618    0.39548    7.05758
H      1.77271    0.44130    7.36427
H     -0.89631   -1.23585    1.82136
H     -2.42438   -0.44740    2.27186
H     -1.47481   -1.33803    3.47825
H      6.00661   -0.14372    3.31881
H      6.32273   -1.11785    1.88119
H      5.48324   -1.83696    3.26130
H     -0.97517   -0.02503   -5.53391
H     -0.52425   -1.41165   -4.50870
H      0.67946   -0.69026   -5.61598
H     -1.18194    1.12074    3.78849
H     -0.66495    1.31434    2.13603
H      3.94899   -1.27313    1.34594
H      4.43758    0.40993    1.44968
