19   
Generated by ForceBalance from scan.xyz: Frame 1 of 24
C        2.6729295960   -4.1566675494   -0.4258506980
C        4.3150934433   -2.6374703713   -0.4790319494
C        4.0709232802   -3.9740273255   -0.2325731645
C        1.8500220752    0.4429817239    1.0311459042
C        1.3947521629   -0.0089923101   -0.3507309007
N        2.0814964778   -3.0183647579   -0.7766933557
N        3.0791978928   -2.1016098341   -0.7882600854
O        4.0067146735    0.2227750184   -1.0523473965
O        2.3298994483   -0.5740756364   -2.7865282660
O        4.9217238160   -4.9769891462    0.1410380268
S        2.7846590594   -0.5014711285   -1.4041242738
H        2.0972730380   -5.0670166216   -0.3140244217
H        5.2058596222   -2.0260758499   -0.4563162011
H        2.3325819100   -0.3729511329    1.5763588035
H        2.5507893054    1.2770238643    0.9616579419
H        0.9758603117    0.7636112747    1.6058183781
H        0.9192129299    0.7945378232   -0.9199910317
H        0.7273593799   -0.8732786041   -0.3375231614
H        5.8313000570   -4.6410177805    0.1497054222
19   
Generated by ForceBalance from scan.xyz: Frame 2 of 24
C        2.7132792311   -4.2438584720   -0.5164641258
C        4.3533580946   -2.7226541626   -0.4609361544
C        4.1124820213   -4.0741223510   -0.3168003308
C        1.7868717166    0.6569275934    0.9954037179
C        1.3909755801   -0.0830808313   -0.2767666673
N        2.1184978036   -3.0833451958   -0.7742578662
N        3.1133666030   -2.1641041613   -0.7119648590
O        4.0395822115    0.1689268612   -0.8548208257
O        2.4452713852   -0.5656442857   -2.6881673853
O        4.9653190418   -5.1012388580   -0.0226715038
S        2.8348472803   -0.5434294459   -1.2833957481
H        2.1395750717   -5.1611799010   -0.4707567165
H        5.2435031361   -2.1134929534   -0.3943368160
H        2.3907546763    0.0270833741    1.6538799161
H        2.3567350882    1.5592337203    0.7666561168
H        0.8776957133    0.9411740347    1.5340983579
H        0.8021925643    0.5404315682   -0.9540672259
H        0.8495433329   -1.0150234315   -0.1021299386
H        5.8745926518   -4.7657768040    0.0088889089
19   
Generated by ForceBalance from scan.xyz: Frame 3 of 24
C        2.7115926858   -4.3006933412   -0.6076859220
C        4.3568596059   -2.7932240961   -0.4451780730
C        4.1093085786   -4.1499449059   -0.3849286522
C        1.7050164063    0.8441367156    0.9381226890
C        1.3802682656   -0.1435494691   -0.1773735792
N        2.1242723206   -3.1238949392   -0.8022098049
N        3.1217764161   -2.2149695859   -0.6743109256
O        4.0513987286    0.1208593700   -0.6657182817
O        2.5117568342   -0.5215774891   -2.5813820544
O        4.9552302082   -5.1966385966   -0.1441696963
S        2.8585877428   -0.5645198164   -1.1655806857
H        2.1334671679   -5.2162716083   -0.6217677717
H        5.2489540349   -2.1935942430   -0.3333423827
H        2.4155313044    0.4221542432    1.6525659061
H        2.1291279694    1.7689682564    0.5421376825
H        0.7796490421    1.0845999303    1.4707415673
H        0.6882223168    0.2688936089   -0.9141752019
H        0.9820000296   -1.0944873803    0.1802510797
H        5.8655553722   -4.8678247308   -0.0852530765
19   
Generated by ForceBalance from scan.xyz: Frame 4 of 24
C        2.7496980813   -4.3143659202   -0.7148645796
C        4.4049811419   -2.8407501492   -0.4047730278
C        4.1378633346   -4.1952938032   -0.4246726283
C        1.6957074949    1.0106204989    0.8713890083
C        1.4586764958   -0.1777146496   -0.0558867957
N        2.1856892700   -3.1205780102   -0.8738638686
N        3.1883357489   -2.2352103839   -0.6588309002
O        4.1393617311    0.0865578417   -0.4804395919
O        2.6301218491   -0.4314208839   -2.4632921110
O        4.9602417261   -5.2650666014   -0.2032182928
S        2.9513938419   -0.5541391416   -1.0463818572
H        2.1617912980   -5.2195927496   -0.8022200816
H        5.2985149483   -2.2603817410   -0.2241017657
H        2.5018286058    0.8081121605    1.5792933122
H        1.9506887494    1.9141555759    0.3127335897
H        0.7757170823    1.2013831928    1.4325821376
H        0.6820107049    0.0077613808   -0.7991359480
H        1.2175265521   -1.0942768367    0.4839278579
H        5.8702996716   -4.9521171128   -0.0845553778
19   
Generated by ForceBalance from scan.xyz: Frame 5 of 24
C        2.6940382866   -4.1904126269   -0.9245255865
C        4.3257604663   -2.7788478281   -0.3301352525
C        4.0040855845   -4.1214651290   -0.3732602781
C        1.7834706749    1.0614742975    1.0810109620
C        1.6017837686   -0.2154134308    0.2645698359
N        2.2274391710   -2.9786488070   -1.2141109633
N        3.2285960113   -2.1346375434   -0.8701045952
O        4.2047542814    0.1379280059   -0.3991519139
O        2.4818049133   -0.0992184438   -2.2730520799
O        4.7264631704   -5.2188563152    0.0061868941
S        2.9638834828   -0.4189610305   -0.9376875414
H        2.0956103321   -5.0726802866   -1.1146226446
H        5.2007506776   -2.2323281791   -0.0086294322
H        2.7237852679    1.0437271561    1.6351336039
H        1.7728446578    1.9516820306    0.4467097759
H        0.9562739205    1.1412809308    1.7928784947
H        0.6917663898   -0.2262797471   -0.3365803003
H        1.6245527733   -1.1070816183    0.8940114732
H        5.6037344732   -4.9377238741    0.3087968726
19   
Generated by ForceBalance from scan.xyz: Frame 6 of 24
C        2.6768351975   -4.1814764943   -0.9688474941
C        4.3421566558   -2.8325241245   -0.3236596289
C        3.9897777550   -4.1644425724   -0.4199566452
C        1.6902328572    1.1511621259    0.9863889179
C        1.6837956624   -0.2503041077    0.3794089127
N        2.2367504160   -2.9491548835   -1.2071374741
N        3.2583028386   -2.1420400205   -0.8328991975
O        4.2818209579    0.0902796229   -0.2670944230
O        2.5549749791   -0.0318666579   -2.1482294334
O        4.6878272433   -5.2925448315   -0.0883237001
S        3.0320616632   -0.4211724188   -0.8295872110
H        2.0582890923   -5.0417760059   -1.1922441050
H        5.2300399842   -2.3192753152    0.0168601825
H        2.6359482995    1.3548111318    1.4927334279
H        1.5275235294    1.9189967834    0.2253602491
H        0.8794905336    1.2211955003    1.7175480638
H        0.7718784641   -0.4882142974   -0.1700188338
H        1.8633895307   -1.0203096292    1.1330784121
H        5.5714466539   -5.0440498212    0.2242628472
19   
Generated by ForceBalance from scan.xyz: Frame 7 of 24
C        2.6395234828   -4.1630465929   -1.0108548344
C        4.3497912353   -2.8930775628   -0.3246660389
C        3.9739529603   -4.2077534926   -0.5189666409
C        1.5737008797    1.2213467762    0.9144922371
C        1.7461180813   -0.2475467146    0.5326109830
N        2.2079936837   -2.9100708863   -1.1251705974
N        3.2515004588   -2.1502426344   -0.7151713805
O        4.3591019352    0.0222411188   -0.0760250181
O        2.6467433727    0.0388835502   -1.9691772413
O        4.6667049158   -5.3680133459   -0.3091989466
S        3.0956049939   -0.4232328277   -0.6636880254
H        1.9986467010   -4.9940700008   -1.2777807885
H        5.2569717491   -2.4205735780    0.0238003706
H        2.4817545568    1.6186674783    1.3738547409
H        1.3222553478    1.8308298944    0.0428544310
H        0.7560489120    1.3048158700    1.6362020017
H        0.8686294878   -0.6752262060    0.0442953482
H        2.0269716513   -0.8683041816    1.3866261050
H        5.5665271229   -5.1570963638   -0.0158470731
19   
Generated by ForceBalance from scan.xyz: Frame 8 of 24
C        2.6435534991   -4.1349653973   -1.0117541865
C        4.4011558008   -2.9228479390   -0.3405892923
C        4.0034207530   -4.2192476668   -0.6010600756
C        1.4524956449    1.2870986483    0.6864362757
C        1.8177648317   -0.1925667536    0.5875708353
N        2.2172870002   -2.8752458643   -1.0166093220
N        3.2843677957   -2.1510666794   -0.6012094252
O        4.4611053000   -0.0204249516    0.0559070103
O        2.8084730669    0.0694665624   -1.8801253143
O        4.6943404279   -5.3952342690   -0.5030275968
S        3.1964517736   -0.4182233418   -0.5634402424
H        1.9804586758   -4.9432883449   -1.2937661303
H        5.3288735205   -2.4799885079   -0.0075630612
H        2.2896994803    1.8808976799    1.0622363388
H        1.1473960049    1.6808710652   -0.2855516458
H        0.6157644862    1.3976707857    1.3821555118
H        1.0056831611   -0.8029315653    0.1868206640
H        2.1576810585   -0.6126424107    1.5368314777
H        5.6135472458   -5.2089266368   -0.2569078716
19   
Generated by ForceBalance from scan.xyz: Frame 9 of 24
C        2.5979130517   -4.1146612886   -1.0173267114
C        4.4056947160   -2.9839807627   -0.3381563376
C        3.9729710088   -4.2506291647   -0.6759535545
C        1.3268162503    1.2318672859    0.5887956948
C        1.8770046517   -0.1856426048    0.7260727337
N        2.1957909467   -2.8520252018   -0.9089881348
N        3.2907420290   -2.1784866630   -0.4791567134
O        4.5420168231   -0.1131182514    0.2405416441
O        2.9334438882    0.0960836945   -1.7174672267
O        4.6433995215   -5.4421454608   -0.6924474777
S        3.2710152682   -0.4428889856   -0.4060224941
H        1.9074967618   -4.8897879734   -1.3258229586
H        5.3544991443   -2.5825999923   -0.0119353279
H        2.0772783656    1.9839406922    0.8466673670
H        0.9801192340    1.4165938430   -0.4296286249
H        0.4809275090    1.3466002256    1.2729340617
H        1.1389352056   -0.9405037579    0.4456254869
H        2.2694043411   -0.4073019117    1.7206922218
H        5.5764755288   -5.2894587665   -0.4772124695
19   
Generated by ForceBalance from scan.xyz: Frame 10 of 24
C        2.5375810898   -4.0643329522   -1.0306592624
C        4.4056075711   -3.0379778356   -0.3492259478
C        3.9175066498   -4.2666938777   -0.7461118623
C        1.2588380829    1.1631900757    0.4424149171
C        1.9689615223   -0.1361911518    0.8107708304
N        2.1849262867   -2.7976293200   -0.8342834505
N        3.3147788782   -2.1895162834   -0.3964582971
O        4.6513703559   -0.2030869617    0.3870102546
O        3.1127774067    0.1206996485   -1.6085992033
O        4.5430100143   -5.4776809664   -0.8525014747
S        3.3809379838   -0.4539743918   -0.2956056489
H        1.8097970507   -4.7963750935   -1.3579848020
H        5.3777119220   -2.6903982315   -0.0297160297
H        1.9177290288    2.0299089118    0.5399166895
H        0.8862935590    1.1237760308   -0.5824832800
H        0.4112270716    1.3001201596    1.1207533083
H        1.3118676509   -1.0002406920    0.6923643493
H        2.3968120755   -0.1349244184    1.8151472736
H        5.4882418470   -5.3692248702   -0.6652339525
19   
Generated by ForceBalance from scan.xyz: Frame 11 of 24
C        2.4697033867   -3.9984013557   -1.0637155579
C        4.3836049418   -3.0840657444   -0.3509490010
C        3.8396588498   -4.2734973159   -0.7933055235
C        1.1855127777    1.0273782856    0.3316218430
C        2.0542720303   -0.0972483919    0.8843473571
N        2.1754224954   -2.7253039477   -0.8165059343
N        3.3320005309   -2.1869490341   -0.3590904209
O        4.7399205279   -0.2860882312    0.5072789361
O        3.2635498720    0.1534535776   -1.5155189534
O        4.4096225852   -5.5066069189   -0.9478433159
S        3.4750612838   -0.4582960904   -0.2089274935
H        1.7086699184   -4.6837002501   -1.4156714769
H        5.3709765783   -2.7939043743   -0.0209622197
H        1.7458626793    1.9590961231    0.2245455706
H        0.7749179880    0.7580692093   -0.6428803677
H        0.3583453715    1.2001765476    1.0272462983
H        1.5007984134   -1.0342905385    0.9629485623
H        2.5124507493    0.1377416827    1.8472177758
H        5.3598050909   -5.4472144155   -0.7637160782
19   
Generated by ForceBalance from scan.xyz: Frame 12 of 24
C        2.3812959497   -4.0268337925   -1.1072683702
C        4.3571947496   -3.3049595227   -0.3446889906
C        3.7111807068   -4.4344790660   -0.8075487405
C        1.3018441072    0.8017803408    0.1518988555
C        2.2701794796   -0.1335265127    0.8660318003
N        2.2058982539   -2.7319102145   -0.8581366964
N        3.3984737612   -2.3104448274   -0.3728921509
O        4.9371687992   -0.5527486232    0.5733220672
O        3.5730880369    0.0317806243   -1.4963508607
O        4.1633931244   -5.7161812996   -0.9579493795
S        3.6893728305   -0.6037322395   -0.1893956392
H        1.5662304880   -4.6334301390   -1.4818827699
H        5.3595099319   -3.1138241347    0.0115337620
H        1.7963722800    1.7194816289   -0.1727047511
H        0.8647160281    0.3165000811   -0.7225786361
H        0.4975838525    1.0655627031    0.8460612689
H        1.8012691781   -1.0709679710    1.1671902887
H        2.7441859832    0.3258447013    1.7369434539
H        5.1104200684   -5.7493691907   -0.7523364126
19   
Generated by ForceBalance from scan.xyz: Frame 13 of 24
C        2.3244267845   -3.8010514876   -1.3426874221
C        4.2265304918   -3.1503173871   -0.3599207049
C        3.5379297552   -4.2751108348   -0.7710584250
C        1.0656300673    0.4819932662    0.2808060076
C        2.2891417542   -0.1752345823    0.9081049543
N        2.2574952233   -2.4727438314   -1.3006834844
N        3.4231275144   -2.0881411893   -0.7274342267
O        4.9303942911   -0.4181314926    0.4117996093
O        3.4083676883    0.3757634547   -1.4845811175
O        3.8742447420   -5.5982717420   -0.6931611046
S        3.6474098194   -0.4195690866   -0.2899955208
H        1.5193770612   -4.3813899921   -1.7759968276
H        5.1846045559   -2.9962572034    0.1156957138
H        1.3210569418    1.4482456074   -0.1578075136
H        0.6378007447   -0.1515257805   -0.4986779630
H        0.3132014933    0.6377588815    1.0605112430
H        2.0846766146   -1.1621409188    1.3277380131
H        2.7466983039    0.4462393693    1.6832389629
H        4.7576432106   -5.6832665378   -0.3025001003
19   
Generated by ForceBalance from scan.xyz: Frame 14 of 24
C        2.3179395242   -3.7337750301   -1.4359145768
C        4.1782671998   -3.1705699858   -0.3279907151
C        3.4731208077   -4.2621216826   -0.7946778064
C        1.0886288141    0.2880704172    0.2597625857
C        2.4031699731   -0.1105299673    0.9216485676
N        2.3000413875   -2.4050380949   -1.3823709874
N        3.4398844333   -2.0719856113   -0.7281273533
O        5.0153970722   -0.4887261069    0.4329811359
O        3.5433207882    0.4042828458   -1.4582978061
O        3.7503713279   -5.5984776501   -0.7120421400
S        3.7380573474   -0.4205175676   -0.2758405070
H        1.5203542236   -4.2771973374   -1.9271165653
H        5.1135937546   -3.0592894550    0.2016262268
H        1.2211298983    1.1786577977   -0.3575268087
H        0.7039584427   -0.5167004404   -0.3691509541
H        0.3548562800    0.5084898941    1.0414903885
H        2.3341105330   -1.0206245107    1.5220782716
H        2.8134229198    0.6875988669    1.5480708056
H        4.6084141272   -5.7230028038   -0.2778233385
19   
Generated by ForceBalance from scan.xyz: Frame 15 of 24
C        2.3394445684   -3.6610023286   -1.5515978761
C        4.0971524939   -3.1577011314   -0.2629423574
C        3.4178219435   -4.2253159670   -0.8139839350
C        1.0776643514    0.1086462612    0.3181011008
C        2.4637797741   -0.0107173689    0.9428940293
N        2.3409435522   -2.3338125429   -1.4744752285
N        3.4156234035   -2.0361166607   -0.7024063295
O        5.0426497935   -0.5118473846    0.4593622550
O        3.6136004151    0.4399633406   -1.4346943370
O        3.6593584879   -5.5685076049   -0.7311417043
S        3.7717099830   -0.3963072171   -0.2549816355
H        1.5818724098   -4.1785380591   -2.1269599365
H        4.9862233060   -3.0753034517    0.3456034931
H        1.0726706615    0.8650151983   -0.4696635267
H        0.7499495491   -0.8386749687   -0.1120029791
H        0.3686811826    0.4092785889    1.0957422019
H        2.5318274012   -0.7920902209    1.7039114477
H        2.8070076541    0.9315979101    1.3813978151
H        4.4704866663   -5.7189902557   -0.2215121851
19   
Generated by ForceBalance from scan.xyz: Frame 16 of 24
C        2.3918747429   -3.5861387483   -1.6859863441
C        4.0188462361   -3.1839543750   -0.2045195232
C        3.3360556143   -4.2112396683   -0.8226981678
C        1.1590335015   -0.1383603753    0.3921363498
C        2.5737622496    0.0207423678    0.9392295685
N        2.4753980139   -2.2615745800   -1.6196112020
N        3.4717840166   -2.0249811944   -0.7299263699
O        5.1331586348   -0.5811703072    0.4886069309
O        3.7710515810    0.4490214327   -1.4142522454
O        3.4719821087   -5.5662304716   -0.7026500949
S        3.8800351290   -0.4104139805   -0.2459598450
H        1.6733362356   -4.0602680685   -2.3430567677
H        4.8425251223   -3.1528120969    0.4941947543
H        1.0325237488    0.4167240247   -0.5399636963
H        0.9166063151   -1.1849388165    0.2038756206
H        0.4539099698    0.2561509579    1.1302840400
H        2.7658337411   -0.6034655449    1.8151709172
H        2.8103561591    1.0591669799    1.1906481759
H        4.2193601752   -5.7645570363   -0.1174594607
19   
Generated by ForceBalance from scan.xyz: Frame 17 of 24
C        2.4267053477   -3.4926337280   -1.7550182934
C        3.9363931516   -3.1849386442   -0.1336378833
C        3.2348337010   -4.1702427862   -0.7979928199
C        1.2429186025   -0.3965322073    0.5158543234
C        2.6337170776    0.0387774873    0.9659764495
N        2.6060891698   -2.1771907721   -1.6984012387
N        3.5380756916   -1.9994406570   -0.7290464385
O        5.1931030010   -0.6328464097    0.5884043314
O        3.9294577631    0.4758999253   -1.3380782640
O        3.2536387995   -5.5286432833   -0.6477052342
S        3.9726326107   -0.4105417133   -0.1859925866
H        1.7385040286   -3.9241668345   -2.4712288982
H        4.6949286134   -3.2035189959    0.6358034720
H        1.0086667245   -0.0211456272   -0.4823419885
H        1.1478183729   -1.4837304655    0.5066997518
H        0.5092953227    0.0070764194    1.2206932161
H        2.9226678442   -0.4069892264    1.9202029207
H        2.7294167113    1.1258598081    1.0368968463
H        3.9271936264   -5.7715134331    0.0062835165
19   
Generated by ForceBalance from scan.xyz: Frame 18 of 24
C        2.3948564172   -3.4184121716   -1.8232580277
C        3.8596265607   -3.1564798597   -0.1535741664
C        3.1498753550   -4.1201335450   -0.8407140041
C        1.2525041835   -0.5436484140    0.5735004633
C        2.5873705071    0.1269888272    0.8823417181
N        2.6137658294   -2.1092393175   -1.7598804405
N        3.5204384444   -1.9596539127   -0.7625346535
O        5.1424186819   -0.6473929404    0.6420996993
O        4.0280783639    0.4980665254   -1.3536458999
O        3.1209434122   -5.4783175187   -0.6900310227
S        3.9744176835   -0.3836620988   -0.1979771862
H        1.7173345144   -3.8287926446   -2.5616955852
H        4.5890430633   -3.1976361458    0.6426040209
H        0.9389725525   -0.3626813896   -0.4560242277
H        1.2993025283   -1.6226266007    0.7366841507
H        0.4962977354   -0.1283135795    1.2470638258
H        2.9361200368   -0.0959412718    1.8926620995
H        2.5514468555    1.2101576830    0.7431178635
H        3.7627568426   -5.7415217922   -0.0124161646
19   
Generated by ForceBalance from scan.xyz: Frame 19 of 24
C        2.4148724420   -3.3778811505   -1.8585802273
C        3.8396261784   -3.1744732006   -0.1458372388
C        3.1353973104   -4.1118357427   -0.8741488886
C        1.2980943801   -0.6374118049    0.6746571131
C        2.5665274210    0.1991688293    0.8138860478
N        2.6512979886   -2.0735464400   -1.7596896827
N        3.5311327465   -1.9602863639   -0.7348008098
O        5.0950908003   -0.7164457710    0.7879008006
O        4.2056127600    0.4586095166   -1.3035997577
O        3.0838798339   -5.4726680091   -0.7544826804
S        4.0135510794   -0.4007180767   -0.1456374851
H        1.7492362197   -3.7613398971   -2.6218690004
H        4.5439892987   -3.2428907013    0.6706830521
H        0.9342656607   -0.6475767501   -0.3535077623
H        1.4581433605   -1.6692555401    0.9969941911
H        0.5271588353   -0.1971592638    1.3149692737
H        2.9323255890    0.2231399495    1.8422774904
H        2.4276706195    1.2199417954    0.4522339392
H        3.7066247998   -5.7596899362   -0.0688080492
19   
Generated by ForceBalance from scan.xyz: Frame 20 of 24
C        2.7339149645   -4.0091682397   -0.1644261050
C        4.2849059064   -2.4440022441   -0.5512146926
C        4.1115604860   -3.6945164574    0.0070658888
C        1.7275357081   -0.3874052587    0.9625783976
C        1.7305883715    0.3220387280   -0.3881368195
N        2.0880428259   -3.0296421601   -0.7900244514
N        3.0376406758   -2.0951151918   -1.0378612714
O        3.9042474639    0.0751187019   -1.9584734088
O        1.6686080973   -0.8389358370   -2.8138033133
O        5.0104482142   -4.5285603918    0.6118025804
S        2.6072339860   -0.5651436578   -1.7366852631
H        2.2112429310   -4.9065664669    0.1424629470
H        5.1441238648   -1.8037406781   -0.6904466065
H        1.1785403839   -1.3283828312    0.9172538637
H        2.7419032512   -0.5893013764    1.3163634064
H        1.2403197137    0.2670979208    1.6921825252
H        2.2442882407    1.2851593257   -0.3496921210
H        0.7209050239    0.4617876320   -0.7778646096
H        5.8980810355   -4.1426129046    0.5529287816
19   
Generated by ForceBalance from scan.xyz: Frame 21 of 24
C        2.6553579192   -4.1095318225   -0.2605627383
C        4.2758837349   -2.5947768578   -0.5536981679
C        4.0253147529   -3.8312728814    0.0072320292
C        1.8987829682   -0.3835693129    0.8353907798
C        1.7196597129    0.1646937839   -0.5766992484
N        2.0857346881   -3.1206643613   -0.9436851277
N        3.0796945466   -2.2200064514   -1.1373894795
O        4.0359654348   -0.0359387596   -1.9379638683
O        1.8923568596   -0.9391074239   -3.0180839449
O        4.8526209146   -4.6811992061    0.6873513391
S        2.7239998386   -0.6782245017   -1.8537647589
H        2.0853556016   -4.9866848436    0.0194857841
H        5.1603768591   -1.9792191686   -0.6341467564
H        1.5410629728   -1.4110106764    0.9110572751
H        2.9439398071   -0.3458323357    1.1536504485
H        1.3165338173    0.2371366652    1.5235447322
H        2.0338257900    1.2078502279   -0.6643180212
H        0.6916947234    0.0632200724   -0.9283620774
H        5.7528939276   -4.3209447016    0.6901511987
19   
Generated by ForceBalance from scan.xyz: Frame 22 of 24
C        2.6502209440   -4.0076114009   -0.2758110054
C        4.2613537727   -2.4734446840   -0.5156790124
C        4.0225117076   -3.7371113429   -0.0126005828
C        1.9735405967   -0.2362018211    1.0066486868
C        1.5749313697    0.1664103812   -0.4091072626
N        2.0688253980   -2.9895639716   -0.9046842695
N        3.0573351673   -2.0768947651   -1.0662525329
O        3.9598374337    0.1966845814   -1.6642071386
O        1.9148011295   -0.7044737235   -2.9184395136
O        4.8612384615   -4.6146088583    0.6167384471
S        2.6758809749   -0.5036637470   -1.6953167612
H        2.0867004414   -4.8990596678   -0.0299159475
H        5.1395196228   -1.8459294203   -0.5675581496
H        1.8672398808   -1.3114751974    1.1575659085
H        3.0020008641    0.0580553948    1.2322842668
H        1.3144140771    0.2757053446    1.7144898758
H        1.6239433095    1.2465414858   -0.5732972382
H        0.5811296717   -0.1956421345   -0.6784201331
H        5.7585091835   -4.2473052717    0.6329533776
19   
Generated by ForceBalance from scan.xyz: Frame 23 of 24
C        2.6288290697   -4.0219691001   -0.3290082696
C        4.2670909775   -2.5101550048   -0.5244456761
C        4.0075955309   -3.7873281447   -0.0667636691
C        2.0006179858   -0.0797719193    1.0135528062
C        1.5087046512    0.0920557368   -0.4187346538
N        2.0627000843   -2.9705348461   -0.9161008982
N        3.0660461827   -2.0700568352   -1.0462431493
O        3.9825479219    0.2356145246   -1.4881808388
O        2.0555808650   -0.6160262225   -2.9351615227
O        4.8333241049   -4.7016247980    0.5266072159
S        2.7152473357   -0.4773803033   -1.6459564959
H        2.0495625455   -4.9102482105   -0.1098210606
H        5.1541496840   -1.8936772885   -0.5504162492
H        2.1230988865   -1.1353908309    1.2651437084
H        2.9502927304    0.4377131689    1.1710851902
H        1.2607824379    0.3487579860    1.6962382277
H        1.3419168557    1.1387463582   -0.6898708619
H        0.6042329627   -0.4820106020   -0.6287707044
H        5.7369048657   -4.3507236293    0.5521433982
19   
Generated by ForceBalance from scan.xyz: Frame 24 of 24
C        2.6335612879   -4.0857363944   -0.3682673185
C        4.2793122091   -2.5751026126   -0.5027413650
C        4.0222812563   -3.8817139166   -0.1357921999
C        1.9446989050    0.1633858118    1.0321914309
C        1.4411171699    0.0366096873   -0.4001533549
N        2.0588848663   -2.9883612581   -0.8537863005
N        3.0622880682   -2.0824407729   -0.9322944076
O        3.9925668565    0.2316618635   -1.2774391360
O        2.1915551494   -0.5849335653   -2.8835867151
O        4.8568024660   -4.8428238957    0.3640591390
S        2.7452085225   -0.4862544111   -1.5407392117
H        2.0526041279   -4.9829518280   -0.1948668267
H        5.1696126117   -1.9627470687   -0.5057885884
H        2.2739836590   -0.8038087556    1.4211421087
H        2.7743554805    0.8707143129    1.0969031845
H        1.1292512982    0.5233280066    1.6665221504
H        1.1030471623    0.9896516592   -0.8175656272
H        0.6487967623   -0.7052076867   -0.5189040604
H        5.7647439787   -4.5029425099    0.3828186647
