31   
Generated by ForceBalance from scan.xyz: Frame 1 of 17
C        2.0189080892   -0.0519327958   -0.2437808846
C        0.7924877545    0.6221789423   -0.1588775413
C        8.3439008491    4.0286361905    2.0337624051
C        9.0337730393    4.3032081385    0.8408913842
C        3.1922629354    0.6900373886   -0.3855489217
C        0.7452899128    2.0145607044   -0.1993907609
C        7.0053451457    3.6728679692    1.9806799935
C        8.3230981074    4.1986825310   -0.3512121237
C        3.1698071242    2.0902356507   -0.4170335614
C        1.9353350280    2.7527326151   -0.2939068108
C        6.3746488933    3.5962467169    0.7141941811
C        4.0092356145    4.1512386220   -1.4637373647
C        2.9356584728    4.9242430795   -0.7170595581
C        4.4158717316    2.9064972640   -0.6598625413
N        7.0274367720    3.8545419159   -0.4312701320
N        5.0347532661    3.2699496381    0.6238388541
O        1.8112451753    4.1125129094   -0.2985697598
H        2.0541393233   -1.1373498177   -0.2202463673
H       -0.1335190460    0.0591486269   -0.0733198335
H        8.8506883385    4.0928398548    2.9935822137
H       10.0813924351    4.5868889795    0.8392688217
H        4.1496036926    0.1827168699   -0.4896397944
H       -0.1972742487    2.5515094148   -0.1434264460
H        6.4431869088    3.4572710516    2.8860933525
H        8.8135223751    4.3996164037   -1.3031787551
H        3.6449477705    3.8281448103   -2.4454516758
H        4.8757047637    4.7982248052   -1.6187167077
H        3.3624403795    5.3715307431    0.1869716540
H        2.5093623294    5.7201935090   -1.3328783856
H        5.1347121291    2.3250067572   -1.2468211506
H        4.6353834054    2.8213658030    1.4376697140
31   
Generated by ForceBalance from scan.xyz: Frame 2 of 17
C        1.9431151047   -0.0339529965   -0.3838429926
C        0.7614846923    0.6878664347   -0.1711328731
C        8.3227096704    4.1240321507    2.0574552470
C        9.0209513293    4.3892192187    0.8671756957
C        3.1518262136    0.6543669218   -0.5202701997
C        0.7869286231    2.0810997220   -0.0849852706
C        6.9946938658    3.7326959271    1.9951574454
C        8.3277111815    4.2390331609   -0.3302660968
C        3.2009122329    2.0479037238   -0.4185883681
C        2.0107170220    2.7567684681   -0.1752591149
C        6.3811027307    3.6104098800    0.7234361410
C        4.0400524752    4.0790946780   -1.4885248885
C        3.0056006383    4.9024545340   -0.7312768296
C        4.4540496455    2.8522737616   -0.6579546042
N        7.0424508200    3.8596670216   -0.4195274404
N        5.0531093579    3.2466541711    0.6246980100
O        2.0001295131    4.1161942032   -0.0360701384
H        1.9183111605   -1.1172290318   -0.4608155497
H       -0.1877993504    0.1648020217   -0.0870980521
H        8.8148078942    4.2232391960    3.0219588117
H       10.0609166666    4.6997751233    0.8716924225
H        4.0725978079    0.1093358900   -0.7188854834
H       -0.1210090636    2.6573857255    0.0681203096
H        6.4265166585    3.5235980015    2.8982912052
H        8.8251419907    4.4309894930   -1.2804697962
H        3.6363862476    3.7213990512   -2.4419152600
H        4.9094116082    4.7053658307   -1.7015863498
H        3.4950726889    5.5013765864    0.0412814100
H        2.4644434255    5.5747506764   -1.4042482283
H        5.1818258687    2.2637980707   -1.2264318020
H        4.6469050969    2.8183923786    1.4457877073
31   
Generated by ForceBalance from scan.xyz: Frame 3 of 17
C        1.7401035296    0.0161202978   -0.6176146848
C        0.6618962268    0.7926952395   -0.1773169308
C        8.2088781783    4.4266774519    2.0094312753
C        8.9764665516    4.4917905967    0.8341927019
C        3.0036951460    0.6005936484   -0.7633936718
C        0.8387940917    2.1477045481    0.1229107406
C        6.9209328151    3.9179132482    1.9552714117
C        8.3879927763    4.0368177591   -0.3424839100
C        3.2000360640    1.9464389925   -0.4523251217
C        2.1130034594    2.7064829474    0.0078446469
C        6.4162619914    3.4790301061    0.7053875487
C        4.1132529740    4.0120244778   -1.3878920498
C        3.1100157695    4.8260342684   -0.5571598057
C        4.4899044300    2.7007978772   -0.6635351091
N        7.1409530227    3.5462297006   -0.4253665963
N        5.1552770639    2.9278274893    0.6227053358
O        2.3162653193    4.0216807092    0.3587606802
H        1.5948838721   -1.0339413769   -0.8557101129
H       -0.3241259344    0.3461933561   -0.0774266333
H        8.6171146378    4.7698815030    2.9570059863
H        9.9892002289    4.8821319253    0.8337317146
H        3.8432357159    0.0098254834   -1.1234222178
H        0.0135192923    2.7687026160    0.4593709812
H        6.3050110628    3.8468990284    2.8485034336
H        8.9409853396    4.0686907724   -1.2808411938
H        3.6834653102    3.7431184862   -2.3580850717
H        5.0092361713    4.6088841580   -1.5752589356
H        3.6248599470    5.5413384882    0.0881010436
H        2.4194187762    5.3792372906   -1.2031794789
H        5.1755990853    2.1296409695   -1.2914295969
H        4.5409439538    3.0944957384    1.4095311980
31   
Generated by ForceBalance from scan.xyz: Frame 4 of 17
C        1.7578566612    0.0413525631   -0.6882984125
C        0.6854310405    0.7920631111   -0.1932327705
C        8.2606339168    4.4139402197    1.9947194033
C        9.0389657156    4.3944371526    0.8249065293
C        3.0240802664    0.6269532248   -0.8189116259
C        0.8698146538    2.1277765254    0.1868796143
C        6.9536182792    3.9552244549    1.9519247535
C        8.4409683736    3.9109963281   -0.3354597892
C        3.2255838988    1.9503639988   -0.4285533479
C        2.1493320531    2.6733366919    0.1054407504
C        6.4403920763    3.4805008953    0.7188117637
C        4.1042429577    4.0618492282   -1.3502526476
C        2.9290751722    4.7688258690   -0.6311172498
C        4.4949325111    2.7435208130   -0.6331118926
N        7.1752683943    3.4687368620   -0.4070495684
N        5.1577371866    2.9743075712    0.6540984967
O        2.3972776295    3.9845064800    0.4699214212
H        1.6046430072   -0.9919452340   -0.9874535214
H       -0.3012635935    0.3427976432   -0.1155159947
H        8.6756279189    4.7831095310    2.9295332966
H       10.0667898170    4.7431090521    0.8161303245
H        3.8525916023    0.0565822772   -1.2330600085
H        0.0496542125    2.7326712292    0.5630267805
H        6.3289459555    3.9486210244    2.8418201345
H        9.0012188005    3.8787347189   -1.2695232513
H        3.8204047817    3.8122301824   -2.3774045725
H        4.9807509491    4.7119626517   -1.4024474495
H        3.2431284659    5.7053841308   -0.1673722133
H        2.1085091644    4.9823669763   -1.3254818828
H        5.1977064493    2.1964618003   -1.2617718402
H        4.5376367246    3.2539487332    1.4044678526
31   
Generated by ForceBalance from scan.xyz: Frame 5 of 17
C        1.7291774957    0.0283513192   -0.7339321075
C        0.6485993687    0.7967336273   -0.2865317345
C        8.3018703996    4.4332062101    1.9550746160
C        9.0572627406    4.3691307443    0.7718182755
C        3.0162468487    0.5812932773   -0.7730556183
C        0.8487750473    2.1092224738    0.1621915546
C        6.9924488959    3.9795412493    1.9527155767
C        8.4348132037    3.8485780117   -0.3591963833
C        3.2267012401    1.8798670759   -0.3111089475
C        2.1518724149    2.5979468291    0.2348298504
C        6.4527357807    3.4649888018    0.7471333750
C        4.0470759716    4.0018510817   -1.2762889222
C        2.8233315157    4.6641732854   -0.5845806783
C        4.4789893289    2.6971067406   -0.5394537232
N        7.1659008660    3.4108684730   -0.3912855920
N        5.1657000463    2.9642282575    0.7267666064
O        2.4401873701    3.9069301214    0.5913940703
H        1.5632897879   -0.9855269203   -1.0879330258
H       -0.3566044638    0.3839082243   -0.3078222874
H        8.7364034582    4.8324162277    2.8684356156
H       10.0862261230    4.7121578492    0.7311242626
H        3.8450256995    0.0154905401   -1.1928430486
H        0.0201193466    2.7287113131    0.4945763015
H        6.3850596834    4.0062185065    2.8540955169
H        8.9767432424    3.7810162008   -1.3021601899
H        3.8004598466    3.7423457713   -2.3106455548
H        4.9021857333    4.6813536147   -1.3068461686
H        3.0531393387    5.6644213224   -0.2137195458
H        1.9601309499    4.7244447359   -1.2566945139
H        5.1816085304    2.1569858152   -1.1735424871
H        4.5584840652    3.2935018775    1.4676215715
31   
Generated by ForceBalance from scan.xyz: Frame 6 of 17
C        1.7105015429    0.0574775970   -0.8086860636
C        0.6290075322    0.8682881793   -0.4466927734
C        8.3444138491    4.4949117303    1.8989337624
C        9.0756435661    4.3936247230    0.7031277883
C        3.0166361272    0.5585288395   -0.7266972313
C        0.8480685166    2.1543396339    0.0655933201
C        7.0367346977    4.0381421092    1.9390905178
C        8.4314135643    3.8343358690   -0.3967970339
C        3.2366416025    1.8309102446   -0.1999252508
C        2.1569035441    2.5584934134    0.3317505283
C        6.4738813073    3.4824144523    0.7625517301
C        4.0022339678    3.9419536165   -1.2265172482
C        2.7872726064    4.6093276560   -0.5149420858
C        4.4777667765    2.6640151914   -0.4528088212
N        7.1635836529    3.3924846524   -0.3880605280
N        5.1883464565    2.9786540458    0.7863700715
O        2.5011741356    3.8575272203    0.6878878135
H        1.5327204233   -0.9351279493   -1.2137416189
H       -0.3881693268    0.5143454652   -0.5923601464
H        8.7964630315    4.9251827391    2.7894133179
H       10.1024480545    4.7377228822    0.6297936829
H        3.8496024455   -0.0130717514   -1.1300398725
H        0.0173999007    2.8059836119    0.3254017113
H        6.4480658995    4.0928685203    2.8515687285
H        8.9539337451    3.7370134717   -1.3480888323
H        3.7329295852    3.6411606624   -2.2438978722
H        4.8466434000    4.6312286675   -1.3035772941
H        3.0124192585    5.6224958776   -0.1772849950
H        1.8941642796    4.6303894933   -1.1484054260
H        5.1762044426    2.1208114395   -1.0888426651
H        4.5939562654    3.3327343459    1.5258449218
31   
Generated by ForceBalance from scan.xyz: Frame 7 of 17
C        1.7092723652    0.0853997114   -0.8649044998
C        0.6370412646    0.9480515735   -0.6088358501
C        8.3762602290    4.5521461388    1.8570633943
C        9.0799434520    4.4244129923    0.6473298890
C        3.0224937779    0.5249568187   -0.6516032367
C        0.8662065134    2.2100018892   -0.0438177342
C        7.0745282333    4.0844079485    1.9403948545
C        8.4166213314    3.8287258149   -0.4217311345
C        3.2426848885    1.7760198627   -0.0729246335
C        2.1481502474    2.5173566593    0.4208443767
C        6.4902139956    3.4909629786    0.7930101104
C        3.9654494616    3.8806407827   -1.1567951039
C        2.7580690952    4.5601608949   -0.4322129137
C        4.4733789043    2.6243152851   -0.3498969919
N        7.1538640102    3.3755275670   -0.3706564204
N        5.2103870913    2.9769972879    0.8611589638
O        2.5532355478    3.8033059827    0.7792955836
H        1.5267147247   -0.8883319858   -1.3117466070
H       -0.3730357536    0.6581080338   -0.8855669249
H        8.8446721887    5.0112882774    2.7243792796
H       10.1012473837    4.7759997945    0.5404380612
H        3.8628026917   -0.0586963499   -1.0214502279
H        0.0436239707    2.8997707205    0.1318699665
H        6.5065342165    4.1589655111    2.8644999834
H        8.9179831267    3.7099882329   -1.3819648600
H        3.6839138776    3.5483140600   -2.1609479433
H        4.8043180349    4.5722909388   -1.2660484635
H        2.9840750461    5.5797758152   -0.1144529204
H        1.8452446547    4.5603062598   -1.0353339326
H        5.1634048998    2.0751089674   -0.9902541325
H        4.6293546506    3.3470455834    1.6030885022
31   
Generated by ForceBalance from scan.xyz: Frame 8 of 17
C        1.7510381150    0.0720329756   -0.8978806832
C        0.6947207744    0.9809714524   -0.7739105302
C        8.4087328158    4.5783383682    1.8008427938
C        9.0810839502    4.4251374198    0.5762956609
C        3.0466305781    0.4798323349   -0.5537123286
C        0.9056149596    2.2360924267   -0.1853273582
C        7.1091784363    4.1138899549    1.9254240085
C        8.3895147476    3.8086887553   -0.4627219787
C        3.2314800365    1.7274918129    0.0438865854
C        2.1119049144    2.4840797817    0.4834173979
C        6.4937318638    3.4979202168    0.8061763093
C        3.9019096710    3.8296891075   -1.0968442236
C        2.7340340452    4.5457372444   -0.3300441600
C        4.4488516986    2.5986296368   -0.2607103576
N        7.1281331966    3.3582290407   -0.3713000584
N        5.2153438182    2.9901845957    0.9170263864
O        2.5811925244    3.7456981923    0.8545843418
H        1.5853673858   -0.8956353904   -1.3642200682
H       -0.2845579678    0.7379695693   -1.1770998741
H        8.8992287763    5.0540936906    2.6467689637
H       10.0996419983    4.7729230430    0.4360320688
H        3.9072303711   -0.1065317546   -0.8686426961
H        0.0849950339    2.9485011911   -0.1194080333
H        6.5651639853    4.2078039655    2.8621104688
H        8.8661784923    3.6696606645   -1.4327828121
H        3.5685882650    3.4534276549   -2.0691919060
H        4.7369292120    4.5106037652   -1.2792319612
H        3.0097555720    5.5458973375    0.0099078762
H        1.8030666178    4.5950666904   -0.8999621374
H        5.1305801563    2.0471108209   -0.9082170922
H        4.6541090744    3.3652727676    1.6708578933
31   
Generated by ForceBalance from scan.xyz: Frame 9 of 17
C        1.8992576241    0.6773834278    0.4436656957
C        0.8005707691    1.3832408909   -0.0574123919
C        8.7840503806    3.9700923653    1.3205606320
C        9.1883109852    4.6525664441    0.1617258788
C        3.1945422066    1.0926580631    0.1056792663
C        0.9901007029    2.3986029004   -1.0055779131
C        7.5327620131    3.3739770837    1.3615115762
C        8.2885840881    4.6977306162   -0.8999986771
C        3.3566363026    2.1111432964   -0.8374740068
C        2.2458884244    2.5505428836   -1.6104322354
C        6.6948078893    3.4788218908    0.2249928098
C        3.7287740111    4.5470576204   -0.4650542628
C        2.5957823682    4.8199648728   -1.5119629263
C        4.4564645077    3.1675398019   -0.7828049320
N        7.0685577514    4.1387491558   -0.8821275072
N        5.4562566058    2.8547747262    0.2239864210
O        2.6528310567    3.6561639151   -2.3487649206
H        1.7513878799   -0.1179272109    1.1697928764
H       -0.1994893360    1.1746517320    0.3125058584
H        9.4445133474    3.9033230816    2.1816451300
H       10.1600210146    5.1305311440    0.0881097274
H        4.0528838850    0.7016433939    0.6459668507
H        0.1336012960    2.9554512590   -1.3822214367
H        7.1977371386    2.8289863434    2.2409729257
H        8.5512139506    5.2170514088   -1.8210422577
H        4.4882605946    5.3327194996   -0.4851936123
H        3.3313169824    4.4887571319    0.5541596261
H        1.6065941834    4.9472848008   -1.0642794436
H        2.8234205973    5.6719091981   -2.1555570744
H        4.9807602732    3.2739944607   -1.7300532095
H        5.0865841795    2.6668617456    1.1486229177
31   
Generated by ForceBalance from scan.xyz: Frame 10 of 17
C        1.8416974860    0.6612743909    0.4410922815
C        0.7413967788    1.2785548898   -0.1639153063
C        8.8134233872    3.9560641000    1.3010647247
C        9.2105329054    4.6020484665    0.1191103713
C        3.1341777162    1.1454833688    0.1966444592
C        0.9355316267    2.3020395599   -1.1014950755
C        7.5510831316    3.3871364721    1.3762189397
C        8.2951388131    4.6412289591   -0.9294191191
C        3.3200111528    2.1671749279   -0.7386261297
C        2.2331460274    2.5751071264   -1.5447602055
C        6.6967194513    3.4824092452    0.2513183231
C        3.7478478310    4.5908062758   -0.4299806917
C        2.5778286467    4.8402722306   -1.4322060515
C        4.4362470411    3.1962892845   -0.7127198040
N        7.0646899862    4.1077997468   -0.8775123006
N        5.4459607687    2.8835338133    0.2844787076
O        2.5693607458    3.6915296766   -2.2994678867
H        1.6882961064   -0.1390840248    1.1604259567
H       -0.2679658082    0.9876634248    0.1141695567
H        9.4870246970    3.8962239023    2.1524395286
H       10.1902751644    5.0580664976    0.0181927190
H        3.9738668261    0.7764985868    0.7799472650
H        0.0882882717    2.8004951733   -1.5676219907
H        7.2198867204    2.8698788348    2.2736821022
H        8.5529245734    5.1331484799   -1.8667285424
H        4.5155795583    5.3640524243   -0.5158238587
H        3.3892092690    4.5861486821    0.6052331919
H        1.6083032399    4.9542968987   -0.9369467995
H        2.7636233529    5.7017012811   -2.0765056137
H        4.9443072594    3.2629544685   -1.6735140550
H        5.0869221436    2.7277041252    1.2192172674
31   
Generated by ForceBalance from scan.xyz: Frame 11 of 17
C        1.8455688655    0.6059436596    0.3880551040
C        0.7376023786    1.1350301016   -0.2814004692
C        8.8270369682    3.9572763493    1.2366559620
C        9.2271222339    4.5483240044    0.0273600966
C        3.1105192656    1.1856208198    0.2163884765
C        0.9013509254    2.1899092132   -1.1896051892
C        7.5518730076    3.4231093372    1.3448207145
C        8.3015805376    4.5705239691   -1.0128090215
C        3.2725420127    2.2366681025   -0.6881704628
C        2.1916027066    2.6164618486   -1.5077363420
C        6.6882214296    3.4970075929    0.2254979833
C        3.7800876169    4.6587585823   -0.4825422397
C        2.5653866212    4.8856684257   -1.4265746716
C        4.4101760937    3.2360297892   -0.7044117410
N        7.0591269336    4.0700954463   -0.9296973921
N        5.4239957163    2.9300311887    0.2917887429
O        2.4559806153    3.7316300535   -2.2844788529
H        1.7166894265   -0.2183236767    1.0846502762
H       -0.2571119910    0.7451553484   -0.0823885884
H        9.5077803048    3.9128235339    2.0832891495
H       10.2164793426    4.9760314576   -0.1002454176
H        3.9518049078    0.8439381896    0.8133406886
H        0.0498513362    2.6215679886   -1.7101194876
H        7.2176033957    2.9483823962    2.2643645388
H        8.5614028621    5.0204535912   -1.9703957825
H        4.5617243430    5.4026973369   -0.6560983519
H        3.4742957394    4.7328465373    0.5670042389
H        1.6289552613    5.0226612806   -0.8745123168
H        2.7183999394    5.7350362306   -2.0948069092
H        4.9065411934    3.2397693243   -1.6750923412
H        5.0706265560    2.8158169324    1.2347143534
31   
Generated by ForceBalance from scan.xyz: Frame 12 of 17
C        1.8577577963    0.5597707068    0.3606547846
C        0.7555101675    1.0100185230   -0.3726062894
C        8.8405340298    3.9432556512    1.2061826853
C        9.2389532452    4.4867093598   -0.0257676390
C        3.0882423850    1.2246616891    0.2625978261
C        0.8867503234    2.0974335533   -1.2468210871
C        7.5529059981    3.4483075711    1.3479843780
C        8.2996178995    4.5039769557   -1.0535380765
C        3.2278323295    2.3058321238   -0.6089636833
C        2.1461651457    2.6651789098   -1.4316296190
C        6.6754966278    3.5128375048    0.2389077466
C        3.7933581007    4.7214354598   -0.4837059899
C        2.5651102850    4.9448373571   -1.4041568500
C        4.3795768994    3.2831936842   -0.6554820935
N        7.0452272742    4.0410255470   -0.9378759390
N        5.3974045932    2.9829812743    0.3388207246
O        2.3475131048    3.7768939437   -2.2267921621
H        1.7530403726   -0.2877575095    1.0328660046
H       -0.2110889593    0.5272494304   -0.2547991277
H        9.5321676756    3.9048790843    2.0442361621
H       10.2377693981    4.8825326604   -0.1797320629
H        3.9300663907    0.9050030404    0.8706584265
H        0.0422627793    2.4695475335   -1.8207275456
H        7.2193306189    3.0102472727    2.2857727965
H        8.5577327021    4.9178432552   -2.0277134040
H        4.5877961688    5.4396187941   -0.7020129235
H        3.5075814436    4.8478595758    0.5665014784
H        1.6558044217    5.1449453751   -0.8256822922
H        2.7258879897    5.7634463785   -2.1077616596
H        4.8648911111    3.2382994558   -1.6319270135
H        5.0523177409    2.9080896423    1.2887618304
31   
Generated by ForceBalance from scan.xyz: Frame 13 of 17
C        1.8867767940    0.5484172142    0.3787058905
C        0.7774377490    0.9657000445   -0.3630952060
C        8.8268285043    3.9760850091    1.2775729384
C        9.2229812863    4.5115771439    0.0413363597
C        3.0829209123    1.2774249805    0.3259586490
C        0.8620356302    2.0999038944   -1.1806755761
C        7.5340610209    3.4981200182    1.4299520485
C        8.2765725058    4.5387854567   -0.9796033076
C        3.1810387632    2.4076592991   -0.4871779837
C        2.0773161382    2.7756063914   -1.2745689382
C        6.6494778784    3.5713417422    0.3271025286
C        3.7883705864    4.8068521313   -0.3966295706
C        2.6023286793    5.0694415011   -1.3540701411
C        4.3463240676    3.3654299967   -0.5550191365
N        7.0170599233    4.0924483961   -0.8537112579
N        5.3658113346    3.0585519146    0.4365518000
O        2.2183015807    3.8812049065   -2.0842426683
H        1.8196992541   -0.3359754457    1.0066702561
H       -0.1575666905    0.4149116252   -0.3016239525
H        9.5241271592    3.9306734732    2.1105548251
H       10.2256956851    4.8939802459   -0.1209172779
H        3.9413626104    0.9574385279    0.9098940700
H        0.0147270965    2.4432629256   -1.7675460826
H        7.2017309009    3.0664532786    2.3711205374
H        8.5328937052    4.9470573446   -1.9566036095
H        4.5992146284    5.5168224163   -0.5786601508
H        3.4658989175    4.9268327923    0.6435753358
H        1.7267167697    5.4400391776   -0.8080826748
H        2.8630462019    5.7929666444   -2.1283938633
H        4.8242176355    3.2935762798   -1.5346884008
H        5.0238877859    2.9862679027    1.3877935859
31   
Generated by ForceBalance from scan.xyz: Frame 14 of 17
C        2.2577518477    0.1453248262    0.2128009580
C        0.9661610900    0.6752060179    0.0906166769
C        8.4120127183    3.6878791861    1.9279555966
C        9.1036265729    4.0821807959    0.7700058760
C        3.3592588192    0.9279952678   -0.1376350059
C        0.7841663668    1.9599229357   -0.4215469703
C        7.0575038101    3.4056256625    1.8482981383
C        8.3775882887    4.1671801955   -0.4144865638
C        3.1985722123    2.2245323541   -0.6494384794
C        1.8911205170    2.6940592791   -0.8663790939
C        6.4115862522    3.5228789188    0.5921201805
C        3.9999156380    4.5272806513   -1.3717211363
C        2.6161939898    4.9153883872   -0.8661027418
C        4.4007615004    3.1399145029   -0.8293901243
N        7.0659946297    3.8986028651   -0.5196828502
N        5.0594616092    3.2715287181    0.4801489203
O        1.6727600095    3.9516218020   -1.3754800340
H        2.4044601648   -0.8575826693    0.6040720929
H        0.1042708141    0.0949910287    0.4098822793
H        8.9295204500    3.6027896359    2.8804596548
H       10.1637139715    4.3141344265    0.7891865790
H        4.3662888045    0.5395777464    0.0035803216
H       -0.2047437725    2.3978161306   -0.5228313846
H        6.4935589075    3.1007341531    2.7266116128
H        8.8684933400    4.4676575961   -1.3395704584
H        3.9642537174    4.4975671246   -2.4661758717
H        4.7602913552    5.2556904528   -1.0828456980
H        2.5685271597    4.9308817531    0.2305564022
H        2.2909334470    5.8827557203   -1.2536523864
H        5.1197572590    2.6907541136   -1.5228899604
H        4.6304388126    2.7754431774    1.2494098051
31   
Generated by ForceBalance from scan.xyz: Frame 15 of 17
C        2.2249435617    0.0802359282    0.0984535608
C        0.9383739475    0.6318722213    0.0172479528
C        8.4065979041    3.7684138982    1.9301875276
C        9.1007113527    4.1089895483    0.7567951522
C        3.3297642183    0.8780434197   -0.1980139482
C        0.7677480260    1.9581452026   -0.3746431658
C        7.0520187159    3.4834786219    1.8617976393
C        8.3783225112    4.1405667412   -0.4325382359
C        3.1819894138    2.2158378119   -0.5944208040
C        1.8821358006    2.7370894180   -0.7189169430
C        6.4100494005    3.5446617227    0.5997583002
C        4.0111129122    4.4430515482   -1.4303842485
C        2.7156279092    4.9434743189   -0.8094340076
C        4.4019115237    3.0928711174   -0.8069180991
N        7.0667549512    3.8680933769   -0.5271300957
N        5.0575817238    3.2896445688    0.4957678440
O        1.6475851440    4.0276759777   -1.1172956975
H        2.3616482374   -0.9545509466    0.3996536636
H        0.0689334589    0.0306286219    0.2705279879
H        8.9225061295    3.7265184894    2.8864125732
H       10.1609352313    4.3408232144    0.7678590473
H        4.3342805494    0.4660977046   -0.1187521026
H       -0.2188923251    2.4079254539   -0.4395484235
H        6.4860951147    3.2189021342    2.7518290930
H        8.8716221572    4.3978663783   -1.3693307802
H        3.8600550512    4.3199444248   -2.5088622942
H        4.8246303777    5.1566397105   -1.2843747361
H        2.8087459846    5.0366981345    0.2807522115
H        2.4021599012    5.9035440895   -1.2233924051
H        5.1134060184    2.5922074865   -1.4722122878
H        4.6274436813    2.8255628064    1.2842156867
31   
Generated by ForceBalance from scan.xyz: Frame 16 of 17
C        2.1691038891    0.0450002384   -0.0009759241
C        0.8924211588    0.6216730544   -0.0731761778
C        8.3924040805    3.8667972478    1.9748097166
C        9.0871634954    4.1703247505    0.7918581133
C        3.2889251315    0.8450087993   -0.2227829402
C        0.7477803415    1.9765137407   -0.3601121718
C        7.0386607009    3.5752125132    1.9143437089
C        8.3652710801    4.1592154837   -0.3981521027
C        3.1693233612    2.2126435408   -0.5132520532
C        1.8816939378    2.7740273061   -0.5816613358
C        6.3977277575    3.5914716512    0.6507975541
C        4.0131341990    4.3703494389   -1.4461608723
C        2.7922882201    4.9675563492   -0.7679948129
C        4.4011349724    3.0630522104   -0.7423029203
N        7.0548719324    3.8786431130   -0.4851816476
N        5.0436646492    3.3306871400    0.5549733680
O        1.6524638649    4.0914136063   -0.8726539477
H        2.2844856740   -1.0125470789    0.2188211455
H        0.0080288639    0.0129466963    0.0969889205
H        8.9071071582    3.8587645579    2.9325392707
H       10.1466097485    4.4060383106    0.7960381141
H        4.2855680020    0.4088968565   -0.1814352402
H       -0.2319845980    2.4419049833   -0.4186167373
H        6.4725645033    3.3393939697    2.8122682926
H        8.8586192465    4.3865153465   -1.3426298635
H        3.7838688670    4.1645533979   -2.4981024324
H        4.8528748243    5.0675995418   -1.4128704372
H        2.9981246796    5.1537473984    0.2941857930
H        2.4755719808    5.9020055550   -1.2348002388
H        5.1131366832    2.5206728634   -1.3735454951
H        4.6286230634    2.8632052989    1.3500255884
31   
Generated by ForceBalance from scan.xyz: Frame 17 of 17
C        2.1103853985   -0.0038142972   -0.1320822934
C        0.8525213347    0.6165530129   -0.1543339640
C        8.3708391176    3.9533353406    2.0278282778
C        9.0689890066    4.2334336322    0.8411217297
C        3.2540946802    0.7769633947   -0.2938253599
C        0.7494350886    1.9950603256   -0.3215632148
C        7.0224873108    3.6378557880    1.9664961502
C        8.3569869571    4.1756043917   -0.3534505160
C        3.1754239624    2.1675212372   -0.4588053015
C        1.9083842339    2.7781288141   -0.4497702393
C        6.3916938855    3.6068681671    0.6982683718
C        4.0256566224    4.2696620739   -1.4567059623
C        2.8796215495    4.9622658440   -0.7415635754
C        4.4164313786    2.9983169667   -0.6916563898
N        7.0520570654    3.8709282786   -0.4412339581
N        5.0419514386    3.3222220861    0.6006995208
O        1.7131317166    4.1214247475   -0.6061664590
H        2.1922874616   -1.0797769318   -0.0076588422
H       -0.0512348907    0.0218550577   -0.0478652503
H        8.8785508569    3.9820041449    2.9888811692
H       10.1243924797    4.4866026619    0.8459310225
H        4.2363296962    0.3079077442   -0.3099499917
H       -0.2164059975    2.4915544227   -0.3451965613
H        6.4532654128    3.4192935053    2.8667987018
H        8.8538728621    4.3830149888   -1.3006414995
H        3.7286089185    3.9971215729   -2.4759807330
H        4.8836522084    4.9424526792   -1.5211701563
H        3.1974881561    5.2683904892    0.2626804518
H        2.5319075874    5.8445606611   -1.2827770555
H        5.1335427591    2.4302316404   -1.2936939400
H        4.6341039348    2.8602987943    1.4029153002
