24   

C       -2.3375651222   -2.2523546022    1.5195067360
C       -4.1294808812    1.8610080311    2.3047456091
C       -4.6359898742   -0.4619632072    2.6540496846
C       -5.3742559228    2.2133414927    2.8388857986
C       -5.8822773876   -0.1035261262    3.1818330297
C       -3.7274911875    0.5171657386    2.1923519816
C       -6.2645489655    1.2342418604    3.2790319942
C       -2.3914687288    0.2466688870    1.6006462405
C       -0.3696257212   -1.0527428876    0.8011800953
C       -1.7355851253   -0.9573049848    1.3446762704
C        1.6299102302    1.8716590930    1.1466252539
N       -2.7850720483   -3.3212482212    1.6389506170
N        0.5973867405   -0.2022592971    0.7263207960
O        0.4435308286    1.0895749919    1.2831515591
Cl      -7.8210222199    1.6726202130    3.9380380317
H       -3.4686989253    2.6539403687    1.9734201744
H       -4.4309931875   -1.5203344182    2.6292478633
H       -5.6565892504    3.2569669586    2.9130393208
H       -6.5632481775   -0.8757063273    3.5211238199
H       -1.8774646431    1.1450190926    1.2911481881
H       -0.0977551235   -2.0264834512    0.4079360476
H        1.4430803729    2.8895391647    1.5006937510
H        1.9379213518    1.9144943550    0.0973280500
H        2.4385695606    1.4339035227    1.7395570326
24   

C       -2.2844868117   -2.2454691416    1.5651327103
C       -4.1962672216    1.8553049868    2.1643041338
C       -4.5867486049   -0.4525504359    2.7095327407
C       -5.4184509772    2.2014046825    2.7521794676
C       -5.8101530399   -0.1008161895    3.2923875540
C       -3.7493006756    0.5220771008    2.1221350391
C       -6.2388424142    1.2262348526    3.3192147441
C       -2.4437037937    0.2539977628    1.4675163952
C       -0.4373548208   -1.0072448735    0.6072751960
C       -1.7708317108   -0.9438636456    1.2377005839
C        1.6288363810    1.7783291267    1.3677919465
N       -2.6662385192   -3.3192458828    1.8065517855
N        0.5489456292   -0.1778049219    0.6231290584
O        0.4153768509    1.0265118320    1.3565529418
Cl      -7.7664816374    1.6564580579    4.0474492755
H       -3.5894693396    2.6438101640    1.7339667721
H       -4.3393901139   -1.5016992111    2.7451990208
H       -5.7377615409    3.2368276439    2.7695485179
H       -6.4361915389   -0.8695770896    3.7307923927
H       -1.9606358898    1.1395708427    1.0747237356
H       -0.2055479372   -1.9394130506    0.1036825625
H        1.4629783781    2.7387288244    1.8642295578
H        1.9695314830    1.9645336357    0.3445671517
H        2.4055021424    1.2299227695    1.9092784582
24   

C       -2.2014762762   -2.2074926695    1.6283605722
C       -4.2588242388    1.8496834422    2.0910905727
C       -4.5707755612   -0.4510341762    2.7126976174
C       -5.4619642799    2.1841507618    2.7232207807
C       -5.7735880410   -0.1105171865    3.3431693104
C       -3.7820588285    0.5265907936    2.0665755542
C       -6.2315657541    1.2070866272    3.3547600837
C       -2.4993899055    0.2697090793    1.3658052529
C       -0.5021179045   -0.9380206954    0.4388648750
C       -1.8013247417   -0.9149542721    1.1508452071
C        1.6244150700    1.6724629338    1.5396595857
N       -2.4962820760   -3.2746126077    1.9908274654
N        0.5031068940   -0.1406384770    0.5380601091
O        0.3895017047    0.9675002894    1.4139730599
Cl      -7.7334756541    1.6233448656    4.1421963056
H       -3.6907823454    2.6388585456    1.6118249960
H       -4.2990795816   -1.4938651300    2.7582565229
H       -5.8056970012    3.2118806114    2.7255374784
H       -6.3603903772   -0.8805609305    3.8308067344
H       -2.0449902831    1.1499708177    0.9260660282
H       -0.3116547174   -1.8186181617   -0.1644282975
H        1.4852375693    2.5493748634    2.1783748012
H        1.9731281097    2.0036232655    0.5566134810
H        2.3834577450    1.0249203081    1.9889099596
24   

C       -2.0782022028   -2.1270413610    1.6999928338
C       -4.3237470753    1.8466733731    2.0156380493
C       -4.5354666478   -0.4427965186    2.7168273601
C       -5.5153186074    2.1607789810    2.6792242389
C       -5.7252594120   -0.1220116413    3.3815181194
C       -3.8024381350    0.5404394898    2.0166639179
C       -6.2271409680    1.1796725002    3.3696829951
C       -2.5358229507    0.3033051921    1.2823061199
C       -0.5399750684   -0.8445091345    0.2985601235
C       -1.8025910781   -0.8618576309    1.0870999530
C        1.6712180011    1.5429190816    1.6798361757
N       -2.2779427708   -3.1726676792    2.1731426619
N        0.4930966750   -0.1014586829    0.4732040384
O        0.4157184298    0.8939138420    1.4793015266
Cl      -7.7126247114    1.5714162865    4.1996903632
H       -3.8005371193    2.6380643796    1.4911197744
H       -4.2276653133   -1.4749221813    2.7785275980
H       -5.8948590959    3.1756769931    2.6606602722
H       -6.2672873385   -0.8948934107    3.9143519087
H       -2.1175658283    1.1804969653    0.8009208636
H       -0.4062189765   -1.6555386748   -0.4081414606
H        1.5774242097    2.2912205043    2.4720002915
H        1.9893488209    2.0411165430    0.7589351986
H        2.4318261605    0.8125637825    1.9723009738
24   

C       -1.9593587537   -1.9841903262    1.7756269911
C       -4.4656825208    1.8431846488    1.8913321044
C       -4.4933462383   -0.3959058168    2.7655798148
C       -5.6523487165    2.1263375802    2.5772653796
C       -5.6780883088   -0.1055845817    3.4529070084
C       -3.8553537326    0.5783943718    1.9670663443
C       -6.2692995715    1.1551553189    3.3660963634
C       -2.6019001756    0.3703416235    1.2025369171
C       -0.5913677596   -0.7076714819    0.1827039262
C       -1.8084924971   -0.7598974629    1.0500869482
C        1.7817519841    1.3435802327    1.7999101761
N       -2.0629286721   -2.9973155785    2.3414069584
N        0.4870932254   -0.0532008256    0.4128416858
O        0.4899443801    0.7886713511    1.5531810208
Cl      -7.7479281624    1.5089757562    4.2248748229
H       -4.0178826562    2.6255935106    1.2893003480
H       -4.1116777180   -1.3973663847    2.8898492789
H       -6.1022858341    3.1091534790    2.4993840591
H       -6.1455765895   -0.8700993676    4.0628373729
H       -2.2488235290    1.2378020771    0.6555687921
H       -0.5549246187   -1.4043970028   -0.6466267827
H        1.7648395421    1.9181268526    2.7304340358
H        2.0679601441    2.0080589176    0.9790498316
H        2.5262093659    0.5466260873    1.8909674734
24   

C       -1.8204039539   -1.7665053661    1.8704163927
C       -4.7145842693    1.7769748980    1.7006191238
C       -4.4388442276   -0.3150753062    2.8520522806
C       -5.8951020327    2.0146809955    2.4138211566
C       -5.6197052414   -0.0711207736    3.5636622345
C       -3.9568051627    0.6087544300    1.8991257717
C       -6.3590636115    1.0930455118    3.3525859120
C       -2.7208133664    0.4435388000    1.0964673914
C       -0.6367086240   -0.5113007818    0.1076312839
C       -1.7989260670   -0.5941815260    1.0501650071
C        1.9808447925    1.0619785447    1.8711097394
N       -1.8226713802   -2.7375479508    2.5143052021
N        0.4983718764    0.0267339744    0.3584962557
O        0.6412373051    0.6314158639    1.6325574687
Cl      -7.8310622307    1.3898864226    4.2437132416
H       -4.3885716168    2.5190934295    0.9808508891
H       -3.9343029763   -1.2402808766    3.0831421375
H       -6.4599097304    2.9231545973    2.2401972088
H       -5.9669896481   -0.7958214091    4.2911687986
H       -2.4946008469    1.2690359434    0.4306734732
H       -0.7538787783   -0.9810734207   -0.8617644483
H        2.0621485691    1.4697002421    2.8827582251
H        2.2593064577    1.8393166630    1.1531602535
H        2.6726758500    0.2197806315    1.7733429630
24   

C       -1.6789809878   -1.4939832064    1.9678020214
C       -4.9929403696    1.6230039783    1.5051354700
C       -4.3737796657   -0.1964717331    2.9489722900
C       -6.1695765440    1.8069161781    2.2402134987
C       -5.5540980559   -0.0097729763    3.6786360078
C       -4.0669311552    0.6172499413    1.8364955133
C       -6.4626410181    0.9910204268    3.3330085201
C       -2.8464360891    0.5013402234    1.0018767084
C       -0.6615269247   -0.2592715571    0.0810745943
C       -1.7741845763   -0.3789471581    1.0744385095
C        2.2059412263    0.7402590794    1.8799786513
N       -1.5904366589   -2.4175880119    2.6727600367
N        0.5292294732    0.1428865108    0.3309301293
O        0.8202281311    0.4646634241    1.6806941229
Cl      -7.9315188792    1.2189847781    4.2491966027
H       -4.8031220190    2.2800672334    0.6641413646
H       -3.7278124380   -0.9880027140    3.2958429565
H       -6.8650725401    2.5906105544    1.9633997968
H       -5.7670688366   -0.6499490270    4.5270945165
H       -2.7636362392    1.2425539664    0.2148702626
H       -0.9082180511   -0.4268092590   -0.9606182673
H        2.3830196059    0.9950836569    2.9288011613
H        2.5169172466    1.5824666899    1.2544414237
H        2.8059614205   -0.1380384771    1.6235597283
24   

C       -2.2439047991   -2.3543558026    1.8998735438
C       -4.2710957916    1.7207628539    1.5863380344
C       -4.3792870985   -0.2819217383    2.9115692017
C       -5.3844604110    2.2303948584    2.2639133386
C       -5.4962923591    0.2309799017    3.5822680917
C       -3.7425242878    0.4521956569    1.8871656088
C       -6.0100111924    1.4891131071    3.2663092916
C       -2.5579062009   -0.0010389582    1.1183550371
C       -0.6748079127   -1.3588787566    0.2536256830
C       -1.8425303048   -1.1919826809    1.1630587128
C        2.0326906759   -2.5750798995    2.1729860858
N       -2.5683225400   -3.3134700792    2.4770046202
N        0.5147122748   -1.7077308038    0.5856394239
O        0.7492303074   -1.9917674141    1.9548059348
Cl      -7.4015308846    2.1232409098    4.1092239812
H       -3.8149676503    2.3304282639    0.8148061330
H       -4.0437536919   -1.2555802505    3.2337874053
H       -5.7701200175    3.2115199343    2.0124851812
H       -5.9698702676   -0.3551320096    4.3615255801
H       -2.1703036210    0.7304030683    0.4181137728
H       -0.8023452633   -1.0361922048   -0.7729053405
H        2.1718558419   -2.7671993007    3.2407301637
H        2.8189330561   -1.8954517203    1.8307229272
H        2.1142234410   -3.5215671001    1.6302073858
24   

C       -2.0704835847   -2.1765831022    2.0973384390
C       -4.3904077728    1.6981753237    1.5171009647
C       -4.3470712158   -0.2069573486    2.9822056977
C       -5.5422055338    2.1669538770    2.1588002177
C       -5.5029899866    0.2642860270    3.6167025160
C       -3.7656388929    0.4989752682    1.9062067818
C       -6.1118221574    1.4528458772    3.2127486133
C       -2.5471512990    0.0868633468    1.1666624277
C       -0.5779881383   -1.1589223108    0.3723664611
C       -1.7447115288   -1.0443273593    1.2781984468
C        2.0623630134   -2.8398760392    2.0288845267
N       -2.3363355150   -3.1103629424    2.7423724254
N        0.5878657615   -1.6353078195    0.6300090262
O        0.8408398903   -2.1084761612    1.9420440009
Cl      -7.5513486196    2.0355831178    4.0109392544
H       -3.9813268781    2.2850622689    0.7027183774
H       -3.9385043319   -1.1255783577    3.3738818331
H       -6.0020460858    3.0946370112    1.8385771390
H       -5.9324396056   -0.2996634557    4.4368127559
H       -2.2182430807    0.8022232649    0.4212418401
H       -0.6793432280   -0.7027231313   -0.6053251937
H        2.1945416181   -3.2129166173    3.0485698614
H        2.9073161738   -2.1921563809    1.7767777462
H        2.0435422346   -3.6908523447    1.3414255963
24   

C       -1.9331843839   -2.0117265858    2.3022586233
C       -4.4545979302    1.6848845728    1.4840638259
C       -4.3527442210   -0.1556946412    3.0262404449
C       -5.6390403733    2.1249531438    2.0851907309
C       -5.5407975045    0.2871157697    3.6207446883
C       -3.7818734302    0.5331909092    1.9333481470
C       -6.1953161009    1.4288580737    3.1578796793
C       -2.5315975908    0.1514989437    1.2295551129
C       -0.4981836799   -1.0008384557    0.5017708120
C       -1.6683757304   -0.9290097054    1.3971401852
C        2.0853002548   -3.0257427867    1.8580861940
N       -2.1511816312   -2.9042640790    3.0198986499
N        0.6362471710   -1.5849676878    0.6701434873
O        0.8905882994   -2.2477180122    1.8963652010
Cl      -7.6749943434    1.9760576827    3.9062275932
H       -4.0584838047    2.2570732176    0.6529793068
H       -3.9143091155   -1.0396682946    3.4619772241
H       -6.1350377950    3.0159994047    1.7182482753
H       -5.9600104724   -0.2627392686    4.4555994197
H       -2.2379863123    0.8499950100    0.4540723853
H       -0.5696267138   -0.4351716809   -0.4197491672
H        2.2027939973   -3.5628149216    2.8037009138
H        2.9525538724   -2.3753954116    1.7102967974
H        2.0376293131   -3.7534987330    1.0424939573
24   

C       -3.0037669818   -1.9072035395    0.4048070009
C       -4.0622797869    2.0850603018    2.3028233178
C       -4.5733703358   -0.2501448364    2.5486691146
C       -4.9581965759    2.3913245831    3.3330324059
C       -5.4706147263    0.0629947062    3.5772467472
C       -3.8461703308    0.7597675532    1.8802171735
C       -5.6724844645    1.3833308317    3.9794981066
C       -2.8728462427    0.5437593181    0.7789135145
C       -1.4551786517   -0.4364430594   -0.9468528024
C       -2.4541737722   -0.6113352694    0.1190144262
C       -0.0631642924   -3.4976290807   -2.1177900723
N       -3.4559419397   -2.9594136568    0.6236502012
N       -0.7349434441   -1.2952464606   -1.5813668447
O       -0.8245466369   -2.6675721099   -1.2431471339
Cl      -6.7919174216    1.7652898898    5.2639709937
H       -3.5292975676    2.9014588752    1.8290881532
H       -4.4815623563   -1.2991160498    2.3162433483
H       -5.1035982443    3.4213782439    3.6371501686
H       -6.0177509100   -0.7314930754    4.0717324348
H       -2.4034952057    1.4589180160    0.4361646269
H       -1.2618902748    0.5863268130   -1.2480819894
H       -0.2099277113   -4.5469113621   -1.8458536019
H        1.0005390081   -3.2559158263   -2.0342441211
H       -0.3855076959   -3.3528307582   -3.1532423844
24   

C       -2.8064510763   -1.9340898269    0.6016928390
C       -4.1007610883    2.0891750261    2.2726991821
C       -4.5685787269   -0.2494724447    2.5660974949
C       -5.0372785381    2.4026774238    3.2638470011
C       -5.5046897472    0.0707136095    3.5572075153
C       -3.8397481848    0.7580831182    1.8956810900
C       -5.7487031119    1.3964041838    3.9159697868
C       -2.8260293469    0.5361309690    0.8321754608
C       -1.3163649093   -0.4483061282   -0.8066626124
C       -2.3401342554   -0.6264459398    0.2329625435
C       -0.1534775904   -3.4866486812   -2.2637592235
N       -3.1822332432   -2.9974089407    0.8979571529
N       -0.6806834443   -1.3002315620   -1.5344412011
O       -0.9399070866   -2.6842556282   -1.3855939382
Cl      -6.9176012187    1.7871960380    5.1528368045
H       -3.5718036062    2.9048349188    1.7932150459
H       -4.4521403392   -1.3016616574    2.3615960424
H       -5.2168585751    3.4371209834    3.5327821134
H       -6.0501896469   -0.7224388337    4.0556371397
H       -2.3904792860    1.4566328478    0.4604992024
H       -1.0302977668    0.5760335373   -1.0139309809
H       -0.4019215591   -4.5415740612   -2.1157441481
H        0.9107208133   -3.3415168045   -2.0556150080
H       -0.3572529623   -3.2182171224   -3.3046092415
24   

C       -2.6037150066   -1.9405237091    0.7925119273
C       -4.1286513535    2.0902304283    2.2378446130
C       -4.5553864474   -0.2517917265    2.5659451841
C       -5.1054070727    2.4032526778    3.1895566447
C       -5.5299711845    0.0678210512    3.5194243947
C       -3.8244042194    0.7576914186    1.9009655847
C       -5.8148006922    1.3949759628    3.8409443564
C       -2.7712913557    0.5350780386    0.8770821654
C       -1.1717387396   -0.4595188385   -0.6722969044
C       -2.2227508215   -0.6306577548    0.3430446736
C       -0.3013561389   -3.4779661453   -2.3491203228
N       -2.8997475190   -3.0057541523    1.1628546828
N       -0.6315431738   -1.3036699054   -1.4813762099
O       -1.0832223385   -2.6458772713   -1.4947069941
Cl      -7.0326000226    1.7851714476    5.0298966295
H       -3.6025737186    2.9071207070    1.7572871152
H       -4.4139133999   -1.3048416892    2.3819617024
H       -5.3182239224    3.4388470471    3.4280788258
H       -6.0744975331   -0.7267886472    4.0165906348
H       -2.3648513553    1.4554447635    0.4733342284
H       -0.7895098068    0.5475675324   -0.7899294577
H       -0.6573089036   -4.5099589782   -2.2800447654
H        0.7504199978   -3.4464650912   -2.0494348264
H       -0.3908884189   -3.1414799461   -3.3862454752
24   

C       -2.3822467273   -1.9342920784    0.9819202827
C       -4.1496469202    2.0768682393    2.1946354888
C       -4.5153288532   -0.2698340371    2.5630297485
C       -5.1670700610    2.3800124768    3.1061666201
C       -5.5293373243    0.0399420968    3.4778005928
C       -3.7927988511    0.7474452138    1.9012487863
C       -5.8651495422    1.3644907573    3.7589104037
C       -2.7013279526    0.5317485023    0.9182275060
C       -1.0146782546   -0.4750098126   -0.5425437729
C       -2.0923631645   -0.6314481071    0.4525429521
C       -0.4955413270   -3.4503595160   -2.4109565901
N       -2.5973598344   -2.9927530872    1.4207092622
N       -0.5810479191   -1.3027337013   -1.4276379628
O       -1.2131827931   -2.5644648941   -1.5540423640
Cl      -7.1326100733    1.7425546648    4.8988743070
H       -3.6336017282    2.8982490031    1.7108628860
H       -4.3377370451   -1.3214926038    2.4017096997
H       -5.4207550487    3.4133961715    3.3120407674
H       -6.0653305969   -0.7601295344    3.9754536526
H       -2.3220099940    1.4483717457    0.4807395344
H       -0.5425114281    0.4995425105   -0.5823776942
H       -0.9948106979   -4.4233480314   -2.4324066132
H        0.5265676431   -3.5861748782   -2.0449962129
H       -0.4635855730   -3.0464866349   -3.4272253345
24   

C       -2.1693763200   -1.9215364679    1.1806625953
C       -4.1806377795    2.0570596107    2.1114678540
C       -4.4508683024   -0.2846466511    2.5818147940
C       -5.2407448654    2.3541146743    2.9752395533
C       -5.5073563208    0.0192996838    3.4491513695
C       -3.7540313914    0.7337682397    1.8951827079
C       -5.9124594809    1.3383775141    3.6551439155
C       -2.6232440013    0.5202339282    0.9585208513
C       -0.8439075396   -0.5089418113   -0.3960750777
C       -1.9560263726   -0.6386659650    0.5740871196
C       -0.7226662854   -3.3778157219   -2.4690785311
N       -2.3191086976   -2.9636087981    1.6810237005
N       -0.5247051474   -1.3040526962   -1.3544188793
O       -1.3215935475   -2.4586319435   -1.5574949310
Cl      -7.2327836027    1.7091824790    4.7359704971
H       -3.6869176980    2.8774724506    1.6033661360
H       -4.2195053687   -1.3329922912    2.4742064839
H       -5.5487688575    3.3827634966    3.1221921219
H       -6.0223128093   -0.7809764024    3.9682160422
H       -2.2683500944    1.4256232349    0.4790454869
H       -0.2782402529    0.4146766735   -0.3611112732
H       -1.3548267039   -4.2654885388   -2.5628893098
H        0.2630321314   -3.6833294378   -2.1055196125
H       -0.6151287180   -2.9142965469   -3.4542822746
24   

C       -1.9618382707   -1.9123904372    1.4231887960
C       -4.2123918232    2.0155661399    1.9875041417
C       -4.3654773318   -0.2933512566    2.6387065035
C       -5.3127454172    2.3179445990    2.7975790817
C       -5.4626366115    0.0162594971    3.4517120612
C       -3.7068351069    0.7063446533    1.8899243395
C       -5.9466719406    1.3218174058    3.5401858767
C       -2.5396694830    0.4824574549    1.0024610627
C       -0.6713298334   -0.5808436197   -0.2283932748
C       -1.8111469812   -0.6687101956    0.7262932735
C       -0.9807949841   -3.2379108217   -2.5386606438
N       -2.0585048385   -2.9235152966    1.9946020134
N       -0.4720696734   -1.3200230093   -1.2584505560
O       -1.4144872864   -2.3488357528   -1.5107512922
Cl      -7.3172773648    1.6995954371    4.5539306477
H       -3.7501487738    2.8197302684    1.4265635163
H       -4.0716644347   -1.3315032332    2.6214275182
H       -5.6821572566    3.3353000517    2.8530436276
H       -5.9473324158   -0.7690404857    4.0204153063
H       -2.2135667384    1.3622062223    0.4590643219
H       -0.0058713256    0.2675785882   -0.1211357026
H       -1.7386959867   -4.0098141733   -2.7002308439
H       -0.0419413961   -3.7197324224   -2.2496775977
H       -0.8304440127   -2.6890370734   -3.4731852139
24   

C       -2.7750763730   -1.6415483457    0.1851310177
C       -3.6725687061    1.5674460375    3.3174943173
C       -4.8017069768   -0.1588367258    2.0832138128
C       -4.8611010278    1.8610598342    3.9956022074
C       -5.9870454838    0.1373762605    2.7670591621
C       -3.6097049609    0.5505305978    2.3475536982
C       -6.0295779184    1.1476179067    3.7283484207
C       -2.3070333228    0.3149354309    1.6787623560
C       -0.5259410879   -0.6120492509    0.2060571793
C       -1.9375490094   -0.6014390722    0.7022061101
C       -0.6279795891    0.4104258420   -3.1707254766
N       -3.4334592750   -2.5064061485   -0.2348799578
N       -0.1358068793   -0.2412133178   -0.9569651526
O       -1.1441036808    0.1789472424   -1.8607939561
Cl      -7.5122137260    1.5124948330    4.5754791589
H       -2.7878119250    2.1471876522    3.5544251404
H       -4.8670214623   -0.9492001848    1.3516800675
H       -4.8813497168    2.6508677630    4.7374322574
H       -6.8878634980   -0.4239793269    2.5468962837
H       -1.5122644705    0.9855390550    1.9857886279
H        0.2490512673   -0.8549372015    0.9233028176
H       -1.4351507258    0.7403765293   -3.8309733121
H       -0.1955834575   -0.5101970613   -3.5740595119
H        0.1432531411    1.1860618113   -3.1407102774
24   

C       -2.7790387869   -1.9152037591    0.3546117579
C       -3.6947470527    1.7211610388    2.9819337084
C       -4.7588973527   -0.2798080045    2.1805301686
C       -4.8616618790    2.0655125519    3.6736750179
C       -5.9240220605    0.0706488518    2.8733556620
C       -3.6114832251    0.5422521541    2.2193028316
C       -5.9878692693    1.2437272279    3.6258960601
C       -2.3332970329    0.2604248942    1.5222024680
C       -0.5583397116   -0.8588911705    0.1693292580
C       -1.9458142884   -0.8154070930    0.7339882373
C       -0.6994821233    0.7413746753   -2.9700551244
N       -3.4308283018   -2.8296384623    0.0439686219
N       -0.1841475263   -0.3502671353   -0.9450962576
O       -1.1723747856    0.3498633299   -1.6816784480
Cl      -7.4444633084    1.6736962382    4.4875582005
H       -2.8422596228    2.3878088048    3.0446883296
H       -4.8031833985   -1.2034377929    1.6247174746
H       -4.8978750828    2.9797013111    4.2545590660
H       -6.7918643143   -0.5771367631    2.8255546974
H       -1.5680957841    1.0186428148    1.6465924594
H        0.1884443990   -1.4009343454    0.7373489084
H       -1.5068057662    1.2247936185   -3.5275632446
H       -0.3584265332   -0.1342650855   -3.5307905367
H        0.1308634790    1.4465094562   -2.8673366009
24   

C       -2.7784924222   -2.1329244016    0.5281639594
C       -3.7244355559    1.7909556455    2.6852299744
C       -4.7112096007   -0.3624301879    2.2756445587
C       -4.8642629199    2.1781901934    3.3991653417
C       -5.8506128021    0.0319412528    2.9873786858
C       -3.6172967361    0.5141122655    2.1054441180
C       -5.9391673366    1.3029368124    3.5559335777
C       -2.3697237205    0.1923404517    1.3712439680
C       -0.6171275668   -1.0473501612    0.0925855276
C       -1.9609721403   -0.9785651576    0.7450245941
C       -0.7132636067    1.0235209436   -2.7631950500
N       -3.4145085486   -3.0919666112    0.3465572758
N       -0.2442146510   -0.4224458250   -0.9631557509
O       -1.1632781599    0.5074000738   -1.5107313921
Cl      -7.3628436345    1.7867287427    4.4436995476
H       -2.9112127665    2.5008718095    2.5861558248
H       -4.7315440679   -1.3636373042    1.8741596736
H       -4.9192043255    3.1677529543    3.8375564473
H       -6.6785231284   -0.6586575263    3.0999940001
H       -1.6434809818    0.9966346217    1.3264418881
H        0.0619837762   -1.8093250446    0.4569282179
H       -1.4809204109    1.6745185853   -3.1911781818
H       -0.5153490626    0.2049003837   -3.4619981022
H        0.2040233826    1.6032701579   -2.6226857090
24   

C       -2.7938317289   -2.2821252747    0.6732330714
C       -3.7668414828    1.8030597545    2.4887807428
C       -4.6929061572   -0.4106388247    2.3467500218
C       -4.8861938858    2.2254430597    3.2150564659
C       -5.8118174890    0.0184274779    3.0708218005
C       -3.6402368425    0.4777522188    2.0354322592
C       -5.9202852842    1.3375048815    3.5120754378
C       -2.4162688687    0.1228332417    1.2767118091
C       -0.7136005239   -1.1923728431   -0.0040303020
C       -2.0063385797   -1.0866337586    0.7267614363
C       -0.6370777455    1.2005208907   -2.6049380750
N       -3.4022104485   -3.2741878785    0.6204644392
N       -0.3019883649   -0.4844557437   -0.9935787822
O       -1.1224761019    0.5948640269   -1.4069077511
Cl      -7.3181903877    1.8645028037    4.4160510780
H       -2.9854098308    2.5243198208    2.2782588528
H       -4.6952567395   -1.4482202086    2.0513188639
H       -4.9569289746    3.2525623890    3.5533417762
H       -6.6077536609   -0.6828586047    3.2938305571
H       -1.7130808487    0.9370966971    1.1402047197
H       -0.1099233737   -2.0653738713    0.2162710371
H       -1.3039963894    2.0144219764   -2.9033694175
H       -0.5971420902    0.4627969429   -3.4121905587
H        0.3657855634    1.6070075421   -2.4421736998
24   

C       -2.7889644805   -2.3645686435    0.7919289066
C       -3.8013543185    1.8034847349    2.3758840483
C       -4.6978153044   -0.4265909836    2.3652318125
C       -4.8985450074    2.2415402306    3.1263981787
C       -5.7930052295    0.0174146706    3.1160031281
C       -3.6700464657    0.4611309762    1.9767024604
C       -5.9048802388    1.3525833364    3.5042996693
C       -2.4681563350    0.0916242174    1.1884817649
C       -0.8159179975   -1.2735207655   -0.1204371556
C       -2.0577708428   -1.1355286286    0.6758838724
C       -0.5110787051    1.3302451782   -2.5032207372
N       -3.3478618004   -3.3835349092    0.8718119721
N       -0.3458310392   -0.5129112420   -1.0460099146
O       -1.0605705419    0.6687291755   -1.3638271607
Cl      -7.2733590476    1.8981140386    4.4417113267
H       -3.0411686670    2.5264307432    2.1026912693
H       -4.6997614359   -1.4751741670    2.1125391490
H       -4.9733213103    3.2817580578    3.4209159140
H       -6.5676854411   -0.6849642942    3.4017081246
H       -1.7846323315    0.9120663972    1.0031711052
H       -0.2811323562   -2.2091091399   -0.0005932771
H       -1.0555708843    2.2607190562   -2.6877475862
H       -0.5951008046    0.6904352963   -3.3868912813
H        0.5436090649    1.5665486133   -2.3316677528
24   

C       -2.7815145362   -2.3991857624    0.9062001447
C       -3.8441939451    1.8147555197    2.3002565912
C       -4.7198326022   -0.4221063184    2.3754056094
C       -4.9118458363    2.2596178695    3.0885039046
C       -5.7831730743    0.0280100614    3.1671500160
C       -3.7156398871    0.4646384476    1.9264732685
C       -5.8901372532    1.3699432922    3.5322956166
C       -2.5425300495    0.0884605274    1.0974416862
C       -0.9450626231   -1.3233069336   -0.2483162967
C       -2.1293498216   -1.1518267352    0.6163826867
C       -0.3598057713    1.4241314809   -2.4199288334
N       -3.2743216319   -3.4323599669    1.1223169531
N       -0.4089312742   -0.5383205065   -1.1185803382
O       -1.0018650074    0.7264811103   -1.3527440646
Cl      -7.2191153326    1.9230870813    4.5207030545
H       -3.1048780801    2.5388489857    1.9774028759
H       -4.7288403204   -1.4744667087    2.1395520193
H       -4.9849120624    3.3057129454    3.3618321542
H       -6.5369455943   -0.6749398270    3.5030147717
H       -1.8864271924    0.9175706003    0.8650941742
H       -0.4803447661   -2.3025327985   -0.2104913192
H       -0.7839751967    2.4280852804   -2.5120361318
H       -0.5098714826    0.8890874523   -3.3624652927
H        0.7135480353    1.5113894611   -2.2249108975
24   

C       -2.7625250196   -2.4233510535    0.9849671145
C       -3.9296742964    1.8079803378    2.1927673221
C       -4.7232262714   -0.4498345578    2.4112822925
C       -4.9637671523    2.2525716274    3.0245425172
C       -5.7514443936    0.0000939278    3.2483458635
C       -3.7760058593    0.4474047076    1.8684802314
C       -5.8820580892    1.3523124660    3.5643167473
C       -2.6387697668    0.0744687048    0.9881020628
C       -1.0839655371   -1.3696797884   -0.3937241613
C       -2.2076454588   -1.1732093543    0.5384782330
C       -0.1719787622    1.4809667379   -2.3198161181
N       -3.1759298454   -3.4586088042    1.3231547242
N       -0.4793282197   -0.5709315366   -1.2063911282
O       -0.9277666069    0.7642875053   -1.3436119007
Cl      -7.1670407397    1.9051461155    4.6094405784
H       -3.2367856207    2.5413089534    1.7961779154
H       -4.7138034347   -1.5106246292    2.2170843875
H       -5.0569837863    3.3068506479    3.2572932717
H       -6.4591155445   -0.7111814976    3.6586798353
H       -2.0362347465    0.9215049403    0.6935370727
H       -0.6948245868   -2.3812378043   -0.4389112803
H       -0.4765428422    2.5314805577   -2.3232742873
H       -0.3468100816    1.0588484394   -3.3139785388
H        0.8964826642    1.4246256090   -2.0896699518
24   

C       -2.3715542403   -2.2612576559    1.4629268454
C       -4.0669116762    1.8169140133    2.5449818157
C       -4.7161863336   -0.4964555327    2.5226588601
C       -5.3437772355    2.1721659330    2.9940140657
C       -5.9927149617   -0.1343195195    2.9697995382
C       -3.7167410048    0.4766192032    2.2941197688
C       -6.3199067699    1.2000707993    3.2093338386
C       -2.3339766686    0.2082683547    1.8169264755
C       -0.3066549176   -1.1016173049    1.0097831080
C       -1.7047745089   -0.9856679089    1.4557584021
C        1.6028600484    1.9100749638    0.8974421486
N       -2.8642890636   -3.3168271139    1.4499005904
N        0.6380703922   -0.2364984354    0.8541275615
O        0.4310857718    1.1320467045    1.1402652606
Cl      -7.9142149809    1.6427518284    3.7671603992
H       -3.3398708051    2.6060923446    2.3904266363
H       -4.5630414482   -1.5531492569    2.3737849534
H       -5.5834608544    3.2129014074    3.1779962080
H       -6.7409598576   -0.9012609717    3.1340752098
H       -1.7541552195    1.1130774209    1.7420453574
H        0.0121524294   -2.1065707439    0.7541641338
H        1.3976030157    2.9622903497    1.1144750563
H        1.9069732073    1.8185076708   -0.1497183699
H        2.4210784200    1.5701560263    1.5395440453
