31

C      1.73639   -0.80865   -0.17923
C      0.66322   -0.17929    1.87379
C      0.67944   -0.16865    0.47561
C      2.75877   -1.45292    0.52713
C      1.66603   -0.81258    2.61800
C      2.72135   -1.45572    1.93793
C      3.52293   -3.64796    2.84920
C     -0.79409    1.92969   -0.05844
C     -0.12147    1.52441   -1.35501
C     -0.42562    0.48181   -0.30102
C      3.88506   -2.11278   -0.23919
C      1.59525   -0.77533    4.12951
C      3.82130   -2.16625    2.71853
O      3.94454   -4.52606    2.12178
O      2.68376   -3.91568    3.88852
H      1.76458   -0.80082   -1.26666
H     -0.14911    0.32296    2.39465
H     -0.19750    2.48248    0.66156
H     -1.84410    2.20646   -0.08575
H     -0.71308    1.52492   -2.26596
H      0.91781    1.81059   -1.48865
H     -1.26137   -0.17865   -0.52820
H      4.84535   -1.62147   -0.03766
H      4.00190   -3.16637    0.02749
H      3.70579   -2.04893   -1.31540
H      1.58694   -1.78006    4.56078
H      2.45205   -0.24225    4.55982
H      0.69133   -0.25658    4.45867
H      3.92472   -1.74011    3.71752
H      4.78012   -2.08058    2.20634
H      2.51624   -4.87780    3.86097
