58

C      6.11589    1.43668   -1.66673
C      5.31545    1.85239   -2.75168
C      5.55771    0.71257   -0.60920
C      3.22767   -2.42032   -2.75279
C      0.99956   -3.35150   -2.18638
C      3.48261   -1.05637    1.41343
C      3.94665    1.57506   -2.79799
C      4.57529   -2.29313   -2.48275
C      0.20358   -4.11463   -1.36035
C      2.39777   -1.72313    1.98481
C      4.36628   -3.82208   -0.60054
C      2.13166   -4.73440   -0.01321
C      0.91816   -0.94694    0.18942
C      2.39823   -3.24654   -1.95271
C      4.18876    0.42303   -0.63073
C      3.30531   -0.32467    0.23778
C      2.97879   -3.95625   -0.85125
C      3.38776    0.88178   -1.71902
C      2.01051   -0.26916   -0.35762
C      5.14741   -3.00231   -1.39567
C      0.77587   -4.79264   -0.25195
C      1.13318   -1.67976    1.35839
C      0.68925   -0.11726   -3.53957
C      7.34130   -2.20825   -1.94285
C      0.92655    0.86123   -2.34188
C     -0.91380   -4.42960    2.59529
C     -1.16777   -4.90130    1.16094
C      0.27172   -3.47738    2.70718
N      2.07346    0.48838   -1.51691
O      1.63252   -0.15649   -4.37796
O     -0.39389   -0.75912   -3.51560
O      6.48036   -2.90468   -1.04898
O     -0.01356   -5.55286    0.60747
O      0.03629   -2.36498    1.84540
H      7.17938    1.66643   -1.66467
H      5.77688    2.38108   -3.58312
H      6.18151    0.36062    0.20984
H      2.78073   -1.83558   -3.55454
H      0.55136   -2.78318   -2.99813
H      4.46393   -1.12692    1.87643
H      3.34148    1.81748   -3.66488
H      5.16841   -1.61076   -3.08020
H     -0.86378   -4.18238   -1.54914
H      2.54038   -2.29505    2.89466
H      4.82638   -4.33770    0.23862
H      2.54614   -5.26068    0.84312
H     -0.04440   -0.98707   -0.30792
H      8.34567   -2.30154   -1.52163
H      7.07625   -1.14853   -2.01850
H      7.32589   -2.65914   -2.94409
H      1.11342    1.86817   -2.73023
H      0.04692    0.89670   -1.69597
H     -1.82555   -3.94080    2.96346
H     -0.71804   -5.29425    3.24163
H     -1.98144   -5.63515    1.14846
H     -1.46094   -4.04967    0.54399
H      1.18638   -3.99566    2.40788
H      0.39297   -3.13380    3.74507
