70

C      3.09580   -6.98237   -4.51043
C      4.86350   -6.49173   -6.08041
C      3.41422  -13.09924    1.41710
C      2.86413  -12.06177    0.68372
C      3.67738   -6.12721   -3.58348
C      5.46423   -5.63896   -5.15809
C      3.39330  -14.54646   -0.51684
C      2.83828  -13.50154   -1.27368
C      3.68052   -7.18522   -5.77805
C      3.68994  -14.35992    0.82985
C      2.57026  -12.25499   -0.68205
C      4.87134   -5.45204   -3.89612
C      2.51279  -13.67329   -2.68647
C      3.12016   -8.11025   -6.80849
C      3.92415  -10.74110   -5.68479
C      8.82787   -2.40162    0.27451
C      8.59697   -1.48078   -0.93178
C      7.60098   -3.28419    0.54230
C      1.50554   -9.99830   -7.51188
C      8.19061   -2.27780   -2.17975
C      7.19784   -4.08084   -0.70610
C      1.03316  -11.31679   -6.84490
C      2.07138   -9.13017   -6.37353
C      2.56195  -10.16437   -5.30811
C      6.95834   -3.15934   -1.91318
C      1.41186  -11.19395   -5.34816
C      4.29233  -15.46358    1.66452
C      1.66438  -12.55487   -4.71275
C      6.59773   -3.94451   -3.16675
N      2.01708  -11.19272   -1.39247
N      1.75403  -11.32731   -2.63110
N      2.01354  -12.49854   -3.27674
O      2.63826  -14.70647   -3.33745
O      3.52412   -8.07643   -7.96536
O      4.09268  -11.72587   -6.36968
O      5.00384  -10.06431   -5.20074
O      5.36960   -4.64984   -2.92233
H      2.16964   -7.47945   -4.24044
H      5.31370   -6.64895   -7.05570
H      3.64143  -12.94785    2.47025
H      2.65025  -11.09578    1.13133
H      3.22729   -5.96349   -2.60901
H      6.38432   -5.13142   -5.42288
H      3.58396  -15.49452   -1.01124
H      9.07083   -1.80695    1.16285
H      9.69821   -3.04306    0.07782
H      7.80282   -0.76094   -0.69087
H      9.49854   -0.89390   -1.14194
H      7.79941   -3.96951    1.37447
H      6.75937   -2.64994    0.85330
H      2.29264  -10.18935   -8.24261
H      0.70149   -9.47587   -8.03644
H      7.99243   -1.59389   -3.01457
H      9.03068   -2.91664   -2.48844
H      7.99935   -4.79100   -0.95760
H      6.30022   -4.67510   -0.50913
H     -0.04282  -11.47966   -6.95744
H      1.54543  -12.16949   -7.29606
H      1.25267   -8.58023   -5.89256
H      2.63234   -9.71318   -4.31749
H      6.10845   -2.50161   -1.68264
H      0.58358  -10.71420   -4.81734
H      3.64606  -15.70971    2.51446
H      4.44119  -16.37311    1.07779
H      5.26319  -15.16060    2.07236
H      2.47786  -13.07610   -5.21593
H      0.77073  -13.18047   -4.81505
H      7.39053   -4.66478   -3.41006
H      6.46473   -3.27014   -4.02287
H      4.71617   -9.26043   -4.73137
