23   

C       -4.8396785452   -6.8726049993   -2.0227348952
C        1.2448640747   -4.8178432658    3.1690807752
C       -3.3355728355   -4.8946904544   -1.4716640763
C        1.0687233221   -5.3724291276    1.9412518783
C       -3.7733085562   -6.5056956282    0.1792862966
C       -4.0133633794   -6.1338649885   -1.1177027185
C       -2.5758945630   -4.3762083332   -0.4440670977
C        0.7218927759   -3.4990146818    3.4338610939
C       -0.1368159992   -3.3637157803    1.3069617506
C       -1.8558197225   -3.1092718631   -0.4969829350
C       -0.8855133087   -2.6259284124    0.3053439557
N       -5.5076591118   -7.4764819418   -2.7611977883
N        0.0396737582   -2.8014336985    2.4635907358
N        0.3727723779   -4.6248843655    0.9922010846
O        0.8730791120   -3.0046973094    4.5376467097
S       -2.7159299554   -5.3751128860    1.0130759173
H        1.7676061758   -5.3284515202    3.9653937232
H       -3.4332581850   -4.4289457597   -2.4468893715
H        1.4603193670   -6.3638243040    1.7249668145
H       -4.1877863480   -7.3928462437    0.6445872457
H       -2.1554130999   -2.4462768645   -1.3024933864
H       -0.7001971892   -1.5592325583    0.2909262302
H        0.1892160916   -4.9710075605    0.0576097005
23   

C       -4.5228391082   -7.0162339019   -1.9715292873
C        1.3194471378   -4.8922504821    3.0939543986
C       -3.1738407547   -4.9317808196   -1.4118557403
C        0.9535856814   -5.4573666558    1.9138953694
C       -3.8232512958   -6.3840011160    0.3162270673
C       -3.8674432221   -6.1555132222   -1.0349365320
C       -2.6029852662   -4.2822133003   -0.3396613593
C        0.9604111056   -3.5209868715    3.3654244025
C       -0.1089676660   -3.3515416971    1.3382481338
C       -1.8925396744   -3.0039293597   -0.3854846690
C       -0.8861604128   -2.5637883956    0.3957690864
N       -5.0506536074   -7.7195630618   -2.7349423996
N        0.2481551760   -2.7817648423    2.4487843072
N        0.2332561536   -4.6671916774    1.0195610734
O        1.2787710889   -3.0172861366    4.4286916375
S       -2.9379005315   -5.1323586759    1.1779848692
H        1.8751538680   -5.4329523638    3.8468689243
H       -3.1239188261   -4.5720818178   -2.4345397750
H        1.2188395906   -6.4886878371    1.6924730230
H       -4.2828238141   -7.2360491498    0.8044070510
H       -2.2037520947   -2.3262736672   -1.1742715921
H       -0.6739151240   -1.5019139574    0.4014382461
H       -0.0942609007   -5.0186378512    0.1269498842
23   

C       -4.2282507959   -7.1190922114   -2.0250248998
C        1.2576030604   -5.1056839897    3.0552266315
C       -3.0406647212   -4.9613266818   -1.3832767003
C        0.7177891305   -5.6378419530    1.9279793556
C       -3.9489033572   -6.3233521549    0.3015813032
C       -3.7635196570   -6.1807675280   -1.0497583487
C       -2.6858893365   -4.2274822960   -0.2751960064
C        1.0647150142   -3.7041668588    3.3404102825
C       -0.1811369381   -3.4375712068    1.4265772319
C       -1.9832621180   -2.9375394695   -0.2452337877
C       -0.9595047789   -2.5737040771    0.5508525503
N       -4.5999233956   -7.8857939872   -2.8186998882
N        0.3401532585   -2.9019813428    2.4884066523
N       -0.0083304516   -4.7841050682    1.0995657158
O        1.5394186039   -3.2285371963    4.3573259796
S       -3.2528129402   -4.9926206365    1.2173605253
H        1.8323549013   -5.6950193252    3.7554704821
H       -2.8148813085   -4.6659608206   -2.4030398312
H        0.8551286388   -6.6916763698    1.6964616913
H       -4.4683774103   -7.1577256264    0.7595164451
H       -2.2952024024   -2.2097887667   -0.9878084528
H       -0.7124143583   -1.5208818483    0.6098048199
H       -0.4621103807   -5.1058726633    0.2516919391
23   

C       -3.9333275305   -7.2305889286   -2.0033874706
C        1.2346366696   -5.2063826286    2.9790708795
C       -2.8995899590   -5.0004519707   -1.3428390895
C        0.5453435158   -5.7244235808    1.9296290498
C       -4.0413630491   -6.2664327007    0.2734761311
C       -3.6461049836   -6.2132987667   -1.0389261275
C       -2.7462589441   -4.1799471092   -0.2514413885
C        1.1777569716   -3.7869130618    3.2327932544
C       -0.2236866365   -3.4724446846    1.4362857460
C       -2.0581094473   -2.8783394278   -0.1748922471
C       -1.0065030573   -2.5665569438    0.6048532534
N       -4.1599015021   -8.0617180302   -2.7867228629
N        0.4381401360   -2.9526768438    2.4255023751
N       -0.1925300200   -4.8383588511    1.1471498029
O        1.7857936985   -3.3227793261    4.1818112746
S       -3.5228787546   -4.8554289155    1.1873007447
H        1.8306442215   -5.8201654790    3.6393704809
H       -2.5115169297   -4.7728219114   -2.3308645459
H        0.5780097084   -6.7916297658    1.7221362533
H       -4.6129034556   -7.0812806263    0.7039562799
H       -2.4007797429   -2.1113039121   -0.8623918387
H       -0.7242812499   -1.5233842334    0.6778956539
H       -0.7503041573   -5.1454506940    0.3574541733
23   

C       -3.6704567924   -7.2728033352   -1.9714264133
C        1.2182282782   -5.2202696733    2.9347491459
C       -2.7765390183   -4.9948424775   -1.2708717584
C        0.3847315944   -5.7327636615    1.9928117689
C       -4.1752518642   -6.1849084755    0.1936862023
C       -3.5590998799   -6.1993101765   -1.0318626219
C       -2.8224693223   -4.1126633279   -0.2195892088
C        1.2831627030   -3.7908742656    3.1204926457
C       -0.2784516467   -3.4544718408    1.4642424956
C       -2.1545817800   -2.8016113928   -0.0838936948
C       -1.0762537401   -2.5252193828    0.6711194538
N       -3.7542821432   -8.1499364437   -2.7324737191
N        0.5185465437   -2.9419909566    2.3528355511
N       -0.3744748431   -4.8310924438    1.2495452969
O        2.0217698664   -3.3299604361    3.9736539984
S       -3.8293673186   -4.7176137297    1.1009180666
H        1.8419239079   -5.8456114888    3.5575400823
H       -2.2203877696   -4.8170447115   -2.1864273750
H        0.3241186235   -6.8075225423    1.8370730957
H       -4.8091803860   -6.9827443683    0.5648124196
H       -2.5546604789   -1.9916219016   -0.6858637803
H       -0.7701853712   -1.4888377899    0.7464693106
H       -1.0261698891   -5.1314781818    0.5322870036
23   

C       -3.4694076027   -7.3206297545   -1.9299180903
C        1.2408638902   -5.2510577873    2.8713588770
C       -2.6725533988   -5.0250371743   -1.1718906399
C        0.2715429008   -5.7558733516    2.0649520726
C       -4.3526430716   -6.1228787285    0.0478656762
C       -3.5138594821   -6.2053372083   -1.0345277085
C       -2.8957445726   -4.0950196936   -0.1864710050
C        1.4128733143   -3.8215567384    2.9616120940
C       -0.3093440058   -3.4699520745    1.4755558391
C       -2.2448063262   -2.7825088333    0.0095313721
C       -1.1350841041   -2.5282283785    0.7258710696
N       -3.4280872132   -8.2321213773   -2.6530910799
N        0.6150202194   -2.9659224973    2.2367871610
N       -0.5157094605   -4.8463170034    1.3612048443
O        2.2751363171   -3.3658983731    3.6929398440
S       -4.1521749055   -4.6187341519    0.9388011353
H        1.8960567167   -5.8825528142    3.4543155967
H       -1.9511488150   -4.8957063861   -1.9734648414
H        0.1287425820   -6.8309664318    1.9825481443
H       -5.0645646596   -6.8927440494    0.3248433859
H       -2.7247499888   -1.9339017971   -0.4680836289
H       -0.8142411066   -1.4958373622    0.7957061273
H       -1.2588626695   -5.1411529404    0.7366133884
23   

C       -3.7551957600   -7.7365251014   -0.6902387358
C        1.0851009401   -4.9767515923    3.3214701661
C       -2.5894590470   -5.4736829018   -0.6759292652
C       -0.0744158395   -5.4539375012    2.7991487107
C       -4.7086634545   -5.6847492308    0.3132056675
C       -3.7075293647   -6.3473361324   -0.3504542929
C       -2.7725535376   -4.1859538662   -0.2321593216
C        1.6379126254   -3.7464256627    2.8101498888
C       -0.0988937864   -3.5290469869    1.3150706939
C       -1.8844894846   -3.0202834267   -0.3997262297
C       -0.7333249351   -2.7612427496    0.2483604353
N       -3.7925851119   -8.8688524027   -0.9584490768
N        1.0095394107   -3.0551535447    1.7997714970
N       -0.6738827939   -4.7122463359    1.7825438225
O        2.6752027091   -3.3127102104    3.2812441740
S       -4.3320184336   -3.9852555975    0.5713313045
H        1.6169020402   -5.4859874348    4.1125352809
H       -1.7105590118   -5.8056847776   -1.2212906211
H       -0.5048258843   -6.3809389462    3.1711862683
H       -5.6321548914   -6.1502530776    0.6398472329
H       -2.2359267393   -2.2523594268   -1.0819546063
H       -0.2009530874   -1.8597213611   -0.0302349923
H       -1.5366042293   -5.0030298306    1.3349307974
23   

C       -3.6029597061   -7.7541977050   -0.5877367496
C        1.0941268549   -5.0337799737    3.2812439688
C       -2.5249155558   -5.4493830146   -0.5191816932
C       -0.1517572661   -5.4057298045    2.8879167900
C       -4.7920466109   -5.6783199845    0.0460966423
C       -3.6613817878   -6.3437293017   -0.3538327014
C       -2.8244022789   -4.1413877275   -0.2150606391
C        1.7082851518   -3.8739703729    2.6827073962
C       -0.1377585001   -3.5210707147    1.3537987622
C       -1.9631928950   -2.9534870915   -0.3040592833
C       -0.7985019569   -2.7169289226    0.3317428923
N       -3.5565605315   -8.9034295354   -0.7684619549
N        1.0513445374   -3.1451761419    1.7180347243
N       -0.7755176050   -4.6300934578    1.9118105233
O        2.8246381063   -3.5354297594    3.0364468130
S       -4.5195548654   -3.9509316681    0.2421490363
H        1.6508622938   -5.5764116697    4.0319459259
H       -1.5483433394   -5.7817632991   -0.8602321269
H       -0.6294997476   -6.2782621291    3.3277805158
H       -5.7491896238   -6.1578556068    0.2194234128
H       -2.3546479543   -2.1327328861   -0.8971831900
H       -0.2640464732   -1.8140373024    0.0616927738
H       -1.7003608145   -4.8464004365    1.5552945885
23   

C       -3.4685936396   -7.7663321097   -0.4758517211
C        1.0867925340   -5.0762099108    3.2447460541
C       -2.4823082770   -5.4226054995   -0.3641021240
C       -0.2203492451   -5.3405336072    2.9859130780
C       -4.8085478566   -5.7018739047   -0.2189289344
C       -3.6062945523   -6.3472534752   -0.3543431872
C       -2.8655498282   -4.1085318843   -0.2097524275
C        1.7386177190   -3.9884479345    2.5572162552
C       -0.1899529771   -3.4997129229    1.4005909652
C       -2.0469325253   -2.8938293911   -0.2077348503
C       -0.8758102927   -2.6647782064    0.4223335443
N       -3.3603651684   -8.9222398931   -0.5642139500
N        1.0565228761   -3.2230064886    1.6395259863
N       -0.8672238084   -4.5304069408    2.0536808813
O        2.9104439543   -3.7466473373    2.7901278003
S       -4.6216913036   -3.9569269413   -0.0923766333
H        1.6655185606   -5.6532045298    3.9519728230
H       -1.4518375009   -5.7408076724   -0.4964722960
H       -0.7270383467   -6.1574804986    3.4948038452
H       -5.7684900949   -6.2057492767   -0.1949988134
H       -2.4690143187   -2.0442531363   -0.7356817337
H       -0.3459246242   -1.7559287300    0.1637719770
H       -1.8362248938   -4.6733359243    1.7896701811
23   

C       -3.3752747371   -7.7451785078   -0.3911454455
C        1.0752964675   -5.1311363852    3.2317922304
C       -2.4412403317   -5.3836753447   -0.2239680427
C       -0.2691096532   -5.2749538469    3.0993292108
C       -4.7514783472   -5.6921055145   -0.5022442455
C       -3.5416839903   -6.3240668265   -0.3755235901
C       -2.8520739020   -4.0671543493   -0.2180395087
C        1.7588213438   -4.1201940351    2.4623119197
C       -0.2127952675   -3.4778677277    1.4662565624
C       -2.0786683971   -2.8324699897   -0.1094899704
C       -0.9083155720   -2.6098224394    0.5268110390
N       -3.2461605742   -8.9023752785   -0.3931519263
N        1.0694592811   -3.3118044019    1.5878031577
N       -0.9217872489   -4.4229259804    2.2093282266
O        2.9641695950   -3.9854471145    2.5837068564
S       -4.6012299280   -3.9407001109   -0.4369043564
H        1.6610502442   -5.7493227318    3.8972452577
H       -1.4042165058   -5.6980397686   -0.1472548608
H       -0.7997019427   -6.0323591777    3.6720489316
H       -5.6958706169   -6.2092162547   -0.6305770053
H       -2.5181872451   -1.9635152580   -0.5894539274
H       -0.3789663785   -1.6956644008    0.2871272737
H       -1.9190545525   -4.4818705338    2.0344551996
23   

C       -3.3552944911   -7.7593603751   -0.2896250053
C        1.1120958408   -5.1185314807    3.1724665418
C       -2.4615479542   -5.3848054074   -0.0935134659
C       -0.2449357560   -5.1858671452    3.1733800531
C       -4.6903898154   -5.7274865714   -0.7452418844
C       -3.5206944744   -6.3409581127   -0.3806613083
C       -2.8626177378   -4.0713657039   -0.2335140624
C        1.7741871938   -4.1669440635    2.3135055893
C       -0.2443429451   -3.4402939524    1.4856559357
C       -2.1511503952   -2.8123542944   -0.0390065839
C       -0.9804318030   -2.5647851851    0.5881849028
N       -3.2284605046   -8.9137714726   -0.2049547700
N        1.0504049953   -3.3433314538    1.4822054079
N       -0.9321590935   -4.3185758509    2.3247452164
O        2.9910872188   -4.0977544697    2.3190312254
S       -4.5510090941   -3.9746215115   -0.7499186198
H        1.7238580850   -5.7545130499    3.7965181184
H       -1.4560550141   -5.6954710950    0.1726386597
H       -0.7589022921   -5.8969510561    3.8163846867
H       -5.5997179383   -6.2584511090   -1.0036043198
H       -2.6229700405   -1.9418783187   -0.4842540973
H       -0.4775442566   -1.6337356758    0.3573870981
H       -1.9435898899   -4.3179026509    2.2538995312
23   

C       -4.2477828875   -7.2419910286    1.0210132402
C        1.1405188947   -4.9920597724    3.1332601642
C       -2.8716326808   -5.1600315869    0.5250979608
C        0.8166583757   -5.5764058755    1.9499968643
C       -4.6215175473   -5.7575056143   -0.9213260899
C       -3.9433237415   -6.0964735290    0.2193547539
C       -2.7604361569   -4.1385743421   -0.3980093149
C        0.8368097706   -3.5969845209    3.3424168537
C       -0.1176082398   -3.4461965111    1.2568608886
C       -1.8372076573   -3.0165727477   -0.5262728872
C       -0.7948012423   -2.6493256930    0.2501564303
N       -4.4898830176   -8.1820256130    1.6642937168
N        0.2037428539   -2.8589020941    2.3690015126
N        0.1906273634   -4.7814108516    0.9901365707
O        1.1395278111   -3.0680590790    4.3979675712
S       -3.9854327036   -4.2970496914   -1.6643875598
H        1.6244327094   -5.5340685207    3.9334427297
H       -2.2621451359   -5.2632771271    1.4155802025
H        1.0426397151   -6.6262439745    1.7765868327
H       -5.4560247383   -6.3215152448   -1.3223818230
H       -2.0600322666   -2.3288967911   -1.3361775616
H       -0.4686191364   -1.6181090551    0.1977198951
H       -0.0856485515   -5.1424773627    0.0841953857
23   

C       -4.3456619507   -7.2065977573    1.0165555256
C        1.1492106933   -5.1448873481    3.1447507268
C       -2.9887915372   -5.0920913774    0.6121712844
C        0.6616520347   -5.7019878398    2.0054470638
C       -4.4364275024   -5.8709576694   -1.0634535423
C       -3.9524864159   -6.1010213982    0.1976392478
C       -2.7571932226   -4.1329223614   -0.3532039301
C        0.9868189031   -3.7286310463    3.3672612358
C       -0.1471222404   -3.4997271744    1.3798772631
C       -1.8789630934   -2.9677805115   -0.3733213505
C       -0.8476421005   -2.6432061208    0.4367715884
N       -4.6591725197   -8.1144071447    1.6749725396
N        0.3278745288   -2.9411134801    2.4513853672
N        0.0162315433   -4.8579515244    1.1022745208
O        1.4326703915   -3.2251778089    4.3838330629
S       -3.7406982948   -4.4298929469   -1.7923618691
H        1.6608813406   -5.7246440059    3.8998940851
H       -2.5330542005   -5.0952817861    1.5973911231
H        0.7774348090   -6.7679904748    1.8224544065
H       -5.1661641576   -6.5019208840   -1.5583498590
H       -2.0998818056   -2.2368151937   -1.1449904654
H       -0.5303248858   -1.6077566999    0.4502510185
H       -0.3895964602   -5.1980471574    0.2376029127
23   

C       -4.4319934678   -7.1520063563    1.0106450297
C        1.1812201643   -5.1949262660    3.1099775421
C       -3.0935323135   -5.0179580772    0.6481615753
C        0.5562856474   -5.7427234301    2.0352557135
C       -4.2338300535   -5.9844291066   -1.1616645921
C       -3.9476488677   -6.0969027749    0.1741881422
C       -2.7394096104   -4.1317516525   -0.3474070289
C        1.1245361689   -3.7674214084    3.3108080653
C       -0.1677141193   -3.5057810405    1.4257031541
C       -1.9239268504   -2.9207490960   -0.2930981808
C       -0.8934295161   -2.6200102662    0.5264911410
N       -4.8192842604   -8.0187556862    1.6848332693
N        0.4349528116   -2.9581072395    2.4373224713
N       -0.1178521308   -4.8777291342    1.1742346572
O        1.6893839205   -3.2729592878    4.2711267107
S       -3.4762529737   -4.5745954780   -1.8915427226
H        1.7255084011   -5.7905137557    3.8290850963
H       -2.7913041650   -4.9190439684    1.6869124623
H        0.5891962093   -6.8172353966    1.8693009041
H       -4.8576451253   -6.6818610826   -1.7095639808
H       -2.1653056196   -2.1628206951   -1.0319516360
H       -0.5808562675   -1.5838534100    0.5714339025
H       -0.6299865346   -5.2090724902    0.3639716151
23   

C       -4.5630857924   -7.1271198985    0.9421632991
C        1.2296038215   -5.2057816582    3.0988359352
C       -3.2334060344   -4.9750175438    0.6618855109
C        0.4529744791   -5.7562879063    2.1296715838
C       -4.0184232123   -6.1006297139   -1.2426057267
C       -3.9654645209   -6.1138458521    0.1275247911
C       -2.7324729784   -4.1487683126   -0.3200279454
C        1.2807964010   -3.7706221942    3.2347940476
C       -0.1947942655   -3.5040080181    1.4890505675
C       -1.9857242357   -2.8952032933   -0.1915814842
C       -0.9538577988   -2.6053614509    0.6283814100
N       -5.0421164327   -7.9590969404    1.6009402142
N        0.5483553596   -2.9556724083    2.4025196267
N       -0.2625006603   -4.8861310801    1.3082414139
O        1.9798912348   -3.2736921478    4.1009470853
S       -3.1802286917   -4.7157939334   -1.9321252637
H        1.8172986883   -5.8045561768    3.7800852800
H       -3.1127066289   -4.7922089229    1.7261503507
H        0.4022021099   -6.8366043903    2.0137258761
H       -4.5214423943   -6.8547478040   -1.8377781921
H       -2.2609945016   -2.1130207230   -0.8923529771
H       -0.6471217873   -1.5680373197    0.6876934101
H       -0.8794418043   -5.2165145086    0.5738484295
23   

C       -4.6798749413   -7.1500101889    0.8446482149
C        1.2663940251   -5.1187012806    3.0681853755
C       -3.4030798713   -4.9573501548    0.6419725328
C        0.3648483675   -5.6876659148    2.2263000441
C       -3.7674083960   -6.2602102572   -1.2768234817
C       -3.9759993130   -6.1697543049    0.0757523151
C       -2.7580089119   -4.1824417872   -0.2941928628
C        1.3868847963   -3.6819177954    3.1097950106
C       -0.2599184237   -3.4483572173    1.5185975452
C       -2.1036579184   -2.8780463272   -0.1179319999
C       -1.0712571609   -2.5638417472    0.6896178942
N       -5.2452303790   -7.9539427641    1.4688375582
N        0.5986079793   -2.8833900033    2.3133774656
N       -0.4044182388   -4.8341726970    1.4368407684
O        2.1980872704   -3.1685977582    3.8610859983
S       -2.8668686566   -4.8872699670   -1.9097909412
H        1.9041691711   -5.7037105044    3.7154592021
H       -3.4897979677   -4.6897203017    1.6914213387
H        0.2598617037   -6.7693850464    2.1827838681
H       -4.1192274843   -7.0814149526   -1.8916129347
H       -2.4460539459   -2.0876292330   -0.7787465988
H       -0.7898809431   -1.5191316951    0.7461206868
H       -1.1072073230   -5.1779598497    0.7909862243
23   

C       -4.8042473825   -7.1365315129    0.7140476766
C        1.3262741102   -5.0769547425    3.0225413919
C       -3.5629973988   -4.9164579333    0.6134062142
C        0.3049073858   -5.6369137878    2.3237741083
C       -3.5019914569   -6.3561217209   -1.2406630397
C       -3.9818022887   -6.1840803855    0.0328781830
C       -2.7661642862   -4.1809535933   -0.2308747392
C        1.5244771557   -3.6493573369    2.9641254320
C       -0.2791219776   -3.4063619345    1.5545086024
C       -2.1811597213   -2.8446548457   -0.0123259082
C       -1.1349829466   -2.5214048686    0.7707805541
N       -5.4665774543   -7.9165276472    1.2694075247
N        0.6911153959   -2.8499947430    2.2157454156
N       -0.5052941618   -4.7838483431    1.5762268689
O        2.4442319559   -3.1449080015    3.5850871789
S       -2.5245266250   -4.9953542083   -1.7788379268
H        2.0039255782   -5.6625421129    3.6273496206
H       -3.8600449881   -4.5858753080    1.6046611626
H        0.1394424077   -6.7113793781    2.3575208716
H       -3.7035210077   -7.2284596672   -1.8527388320
H       -2.6077761366   -2.0393161587   -0.6023079450
H       -0.8638799104   -1.4739289169    0.8262357855
H       -1.2924227502   -5.1211763845    1.0323164561
23   

C       -4.9088932063   -7.1294917235    0.5618282839
C        1.3770748196   -5.0743195428    2.9617109972
C       -3.7145291590   -4.8816015735    0.5658232904
C        0.2468208915   -5.6031878319    2.4254915795
C       -3.2487221457   -6.4315805245   -1.1361132355
C       -3.9828303136   -6.1953552358   -0.0015298818
C       -2.7823596848   -4.1728936296   -0.1513889512
C        1.6527952682   -3.6690842748    2.7870257796
C       -0.2889093029   -3.3862540196    1.5837828667
C       -2.2549737479   -2.8167435636    0.1081130942
C       -1.1828331683   -2.4930368062    0.8531899286
N       -5.6559472180   -7.8935023918    1.0241058453
N        0.7837831764   -2.8586788576    2.0926650759
N       -0.5940757656   -4.7417891425    1.7232143603
O        2.6716235292   -3.1943106320    3.2587677689
S       -2.2070311525   -5.0767492306   -1.5553279260
H        2.0859984237   -5.6687573350    3.5202583865
H       -4.2060198404   -4.5044420901    1.4579355455
H        0.0212783525   -6.6600135912    2.5490179145
H       -3.3040036728   -7.3464016539   -1.7160171871
H       -2.7864694637   -1.9977658486   -0.3666340743
H       -0.9117546575   -1.4454601140    0.9056118662
H       -1.4582010199   -5.0565110213    1.2947795587
23   

C       -5.0113603045   -7.1115551599    0.3768113688
C        1.4320355018   -5.0576989249    2.9148858284
C       -3.8395716203   -4.8549817108    0.4941284008
C        0.2198505893   -5.5493001314    2.5494430430
C       -3.0558217653   -6.4847937165   -1.0048858339
C       -3.9943128879   -6.1982201381   -0.0462746797
C       -2.7893796781   -4.1723635583   -0.0686024057
C        1.7610585306   -3.6863023280    2.6100933613
C       -0.2876973968   -3.3639465705    1.6132530739
C       -2.3132658330   -2.8046981986    0.2249111366
C       -1.2142037863   -2.4712279298    0.9249885105
N       -5.8337250726   -7.8576499775    0.7270120948
N        0.8621928508   -2.8701614239    1.9616407788
N       -0.6494589527   -4.6847595688    1.8870810346
O        2.8531062051   -3.2469845502    2.9267929660
S       -1.9526096067   -5.1432087620   -1.2854870055
H        2.1683299540   -5.6576658703    3.4304705936
H       -4.4905182452   -4.4411257791    1.2584266491
H       -0.0465921867   -6.5799177096    2.7727595300
H       -2.9985262992   -7.4282062524   -1.5367060206
H       -2.9371639733   -1.9900283613   -0.1294592597
H       -0.9428624947   -1.4231438834    0.9615603918
H       -1.5699546719   -4.9746125792    1.5739190137
23   

C       -5.8346476392   -6.1549145901    0.4991414339
C        0.9843849459   -5.0639179765    3.3165685355
C       -4.0805507456   -4.3326850754    0.2144114976
C       -0.3496455208   -5.2170731770    3.1122996813
C       -3.5479633674   -6.5467347999   -0.3627923594
C       -4.5253643702   -5.7163560997    0.1236344177
C       -2.7808332314   -4.1613058387   -0.1969907950
C        1.7127556182   -4.0893764730    2.5405220124
C       -0.1990106545   -3.4865834041    1.4126167740
C       -1.9946726664   -2.9152065596   -0.2496634384
C       -0.8463385153   -2.6578933702    0.4031810305
N       -6.8975760266   -6.5124625649    0.8123000809
N        1.0743168621   -3.3128961263    1.6002159512
N       -0.9467707835   -4.4111759073    2.1449252943
O        2.9122855717   -3.9599999912    2.7141702341
S       -2.0566418795   -5.6865934080   -0.7246637194
H        1.5290663715   -5.6482756298    4.0444409525
H       -4.7155371395   -3.5257704753    0.5669617242
H       -0.9151496492   -5.9453605261    3.6892329130
H       -3.6754948044   -7.6129917744   -0.5137245857
H       -2.4191566467   -2.1021617504   -0.8303470823
H       -0.2981474761   -1.7654222742    0.1271818016
H       -1.9331489249   -4.4757531329    1.9170558786
23   

C       -5.8965406762   -6.1721916357    0.1937565860
C        1.1151924293   -5.0131922679    3.2690118225
C       -4.1349359169   -4.3387818612    0.0778744917
C       -0.2400588502   -5.0859536763    3.2117630951
C       -3.4976439467   -6.5741258194   -0.2624691907
C       -4.5473961554   -5.7336158773    0.0065792000
C       -2.7846445017   -4.1673659525   -0.1217583624
C        1.8153126484   -4.1170406636    2.3804575862
C       -0.1642223855   -3.4393986744    1.4274489228
C       -2.0392274859   -2.9018557203   -0.1500222404
C       -0.8660428283   -2.6210437912    0.4493075904
N       -6.9933905445   -6.5291018488    0.3532174126
N        1.1294833920   -3.3389866056    1.4756552761
N       -0.8869425476   -4.2791363014    2.2774314319
O        3.0320545147   -4.0592693620    2.4238842816
S       -1.9748947208   -5.7104997890   -0.4341431977
H        1.6977276057   -5.6052385160    3.9604821093
H       -4.8279658704   -3.5242517905    0.2633141324
H       -0.7838782864   -5.7543110492    3.8755317280
H       -3.5901465009   -7.6497943121   -0.3630621943
H       -2.5170268177   -2.0814066710   -0.6762514903
H       -0.3397323091   -1.7265995548    0.1395767078
H       -1.8935362744   -4.2895577806    2.1549437340
23   

C       -5.9319332374   -6.2207492665   -0.1140175188
C        1.2341018180   -4.8251222531    3.2011560667
C       -4.2153092511   -4.3427267752   -0.0492620077
C       -0.1191460978   -4.8322069755    3.3212634758
C       -3.4827112229   -6.5730236689   -0.1255921043
C       -4.5801529739   -5.7517413117   -0.0963174514
C       -2.8534702361   -4.1378474805   -0.0185599096
C        1.8517382823   -4.0102169251    2.1826178086
C       -0.2031908755   -3.2879075332    1.4496569088
C       -2.1759453275   -2.8410428053   -0.0274044152
C       -0.9928834490   -2.4976805937    0.5197457641
N       -7.0322177385   -6.6020247517   -0.1220304411
N        1.0887861012   -3.2464864072    1.3290363748
N       -0.8468012231   -4.0422386206    2.4326922010
O        3.0651237828   -4.0124532023    2.0673128405
S       -1.9722066387   -5.6728819789   -0.0915883513
H        1.8752623790   -5.4109406733    3.8444125458
H       -4.9483646437   -3.5424898825   -0.0468985711
H       -0.6001898331   -5.4384647814    4.0855009736
H       -3.5337647208   -7.6551939520   -0.1681601853
H       -2.7131881973   -2.0384804916   -0.5229004563
H       -0.5224805949   -1.5829199196    0.1812360894
H       -1.8598018378   -4.0066589745    2.4425029509
23   

C       -5.9315888298   -6.2360045526   -0.4632099704
C        1.3109929534   -4.8468294801    3.1951892151
C       -4.2299689834   -4.3649982741   -0.1762789131
C       -0.0143311280   -4.7351946315    3.4730264539
C       -3.5331787594   -6.5981244874    0.0232640246
C       -4.6017329796   -5.7724581928   -0.2097950846
C       -2.8970837661   -4.1595119234    0.1108217185
C        1.8606733265   -4.1414851936    2.0623120501
C       -0.2077444907   -3.2957074420    1.5286137395
C       -2.2385632864   -2.8584407586    0.1328959242
C       -1.0451988291   -2.5009424778    0.6484871620
N       -7.0150890446   -6.6127553005   -0.6639354733
N        1.0595645515   -3.3653602262    1.2564357030
N       -0.7832855970   -3.9371360752    2.6271064623
O        3.0474182190   -4.2504122899    1.8067696065
S       -2.0452087788   -5.7025507434    0.2971128547
H        1.9794296264   -5.4484062627    3.7946855920
H       -4.9376969240   -3.5653596851   -0.3691310505
H       -0.4429040804   -5.2575207034    4.3253790112
H       -3.5917473999   -7.6805878699    0.0355925237
H       -2.7892567764   -2.0568850867   -0.3491605127
H       -0.5975728629   -1.5782940536    0.3011484267
H       -1.7805878097   -3.8131341516    2.7572179793
23   

C       -5.0528525064   -6.7210334305   -1.8896523065
C        1.3218550336   -4.8191981652    3.2560337186
C       -3.3874579789   -4.8600859352   -1.3969714360
C        1.2891806501   -5.3435566618    2.0029461176
C       -3.6063908749   -6.6414834831    0.1150710667
C       -4.0491038411   -6.1149769073   -1.0693947078
C       -2.4381355974   -4.4809708586   -0.4702372340
C        0.6712032655   -3.5571605075    3.5146892687
C       -0.0333745566   -3.4227601339    1.3320745199
C       -1.7053181007   -3.2237986619   -0.5244066598
C       -0.7606210701   -2.7164126152    0.2939963317
N       -5.8663612610   -7.2169069658   -2.5594268304
N        0.0053782884   -2.8874589467    2.5139428512
N        0.6088520334   -4.6230188491    1.0220010412
O        0.7010094007   -3.0867776496    4.6386802466
S       -2.3713824729   -5.6422064249    0.8672141732
H        1.8227538954   -5.3121655452    4.0771343117
H       -3.6349999777   -4.2811637381   -2.2806973945
H        1.7786229234   -6.2915766027    1.7915104740
H       -3.9745547781   -7.5656776714    0.5457904895
H       -2.0051434921   -2.5605072836   -1.3295386433
H       -0.5913520436   -1.6473678538    0.2684943760
H        0.5359442725   -4.9467569449    0.0646852351
