28   

C       -0.9864303029    0.3276406548    0.5217253649
C       -2.0409334364   -0.5895520384    0.6208309255
C       -1.7878434838    1.4789605102    2.5031844049
C       -3.9210815156    0.3917739006    3.5397769427
C       -2.8339444080    0.5554035805    2.5899832007
C       -0.8416025672    1.3739989122    1.4579441932
C       -2.9511023839   -0.4560450838    1.6616707436
C       -4.6570454247   -0.7109892841    3.1426344409
C       -5.7902527125   -1.3931287484    3.7610273493
C        1.2176043776    2.2844758233    2.5629081880
C       -0.2032472630    3.7696741559    1.0968232352
C        0.3123452331    2.3470651634    1.3292561162
N       -4.0551453286   -1.2375635995    1.9771121601
O       -6.1773432009   -2.5078616311    3.4361591648
O       -6.3724319695   -0.7090113343    4.7738570961
H       -0.2745528536    0.2218150805   -0.2887737202
H       -2.1447443345   -1.3924841366   -0.0980155912
H       -1.7103709673    2.2651781691    3.2438487457
H       -4.1130630922    0.9999326082    4.4155262463
H        0.6734032910    2.5783884473    3.4654243737
H        2.0726789051    2.9562434756    2.4385673668
H        1.5962974617    1.2663583152    2.6984292098
H       -0.8001171824    4.1145146562    1.9465121849
H       -0.8254264961    3.7997455146    0.1966667927
H        0.6363182489    4.4580737735    0.9587480297
H        0.9162811664    2.0657639369    0.4599784190
H       -4.3670051815   -2.0780267347    1.4945209502
H       -7.0858095230   -1.2860250106    5.0903282563
28   

C       -0.7191889625    0.1396854031    0.7973094918
C       -1.7288347820   -0.8220877217    0.9347568011
C       -1.8743698048    1.5911756200    2.3631892253
C       -4.0728014776    0.5522982142    3.3072384975
C       -2.8724268236    0.6206341330    2.4923667269
C       -0.7737940888    1.3587293186    1.5067736128
C       -2.7943241627   -0.5599103639    1.7866856984
C       -4.6811426212   -0.6639054536    3.0512502774
C       -5.8041141019   -1.3321243718    3.7081728754
C        1.0248088433    2.6519738797    2.6881131609
C       -0.1997044394    3.6673090794    0.7277082855
C        0.3382444671    2.3751303964    1.3471040328
N       -3.8866243474   -1.3556469468    2.1081894432
O       -5.9340257219   -2.5466154377    3.7764410529
O       -6.6703825130   -0.4929075638    4.3225477143
H        0.1148320290   -0.0670280791    0.1365844788
H       -1.6780535216   -1.7580878122    0.3929792805
H       -1.9509686447    2.5107379885    2.9299751221
H       -4.4115947331    1.2917204607    4.0227862249
H        0.3239158804    3.0859006367    3.4074563299
H        1.8561628027    3.3502640461    2.5496914136
H        1.4227505082    1.7211804664    3.1047625883
H       -0.9495219006    4.1301471439    1.3763747562
H       -0.6598162580    3.4537189164   -0.2423246119
H        0.6158689183    4.3805505046    0.5729958605
H        1.0935890824    1.9681348888    0.6664263329
H       -4.0548720459   -2.3101669391    1.7973796682
H       -7.3325046823   -1.0709990901    4.7340755752
28   

C       -0.7446477957    0.1688265304    0.7513380591
C       -1.7605354691   -0.7880602298    0.8772761884
C       -1.8844604086    1.6035334128    2.3434998025
C       -4.0776410552    0.5582784488    3.2905572827
C       -2.8882236808    0.6374904684    2.4614863259
C       -0.7881773214    1.3768536438    1.4801650001
C       -2.8211295997   -0.5322207428    1.7373426217
C       -4.6936213610   -0.6508097569    3.0216005853
C       -5.7700641126   -1.3410629969    3.7408592179
C        1.0184155212    2.6416291597    2.6820877088
C       -0.1936590034    3.6894138091    0.7311623574
C        0.3327189756    2.3859261515    1.3362162256
N       -3.9123155570   -1.3301796114    2.0580595561
O       -5.7641513957   -2.5341678982    4.0049147043
O       -6.7434717785   -0.5210689723    4.2005104761
H        0.0865213580   -0.0338971746    0.0857988403
H       -1.7166039958   -1.7167813137    0.3225551457
H       -1.9516062066    2.5134671069    2.9267745651
H       -4.3950389254    1.2790291584    4.0342882480
H        0.3197540118    3.0733804785    3.4048869344
H        1.8559374722    3.3344454177    2.5536111528
H        1.4076448168    1.7029051476    3.0890772122
H       -0.9420685779    4.1495734945    1.3833672310
H       -0.6524069647    3.4909872880   -0.2427171622
H        0.6276360921    4.3984030887    0.5876070032
H        1.0867072966    1.9810410514    0.6527825470
H       -4.0698424257   -2.2867563350    1.7493041994
H       -7.3531921910   -1.1000022774    4.6852069576
28   

C       -0.7784995451    0.1823211105    0.7134478999
C       -1.8012013352   -0.7682043241    0.8332054566
C       -1.8947888121    1.6027746952    2.3345639929
C       -4.0827710294    0.5567259811    3.2907124850
C       -2.9049565355    0.6427401568    2.4465588667
C       -0.8067730351    1.3799742977    1.4599441914
C       -2.8531953736   -0.5166565800    1.7051685771
C       -4.7088442116   -0.6439031980    3.0121550669
C       -5.7521873969   -1.3441299480    3.7827636174
C        1.0149033529    2.6165034262    2.6703069957
C       -0.1953975811    3.6952341361    0.7353311531
C        0.3223809782    2.3810087069    1.3240816965
N       -3.9450214422   -1.3135245658    2.0273411848
O       -5.6274556102   -2.4655034200    4.2472446862
O       -6.8406134489   -0.5867205751    4.0502678191
H        0.0466319468   -0.0177747339    0.0396512870
H       -1.7677761714   -1.6897608818    0.2659785345
H       -1.9495238454    2.5038924980    2.9326227982
H       -4.3785119730    1.2627171016    4.0570349139
H        0.3226872761    3.0466520933    3.4002152747
H        1.8578897593    3.3034867554    2.5462334413
H        1.3975555931    1.6702825820    3.0660193002
H       -0.9382930856    4.1536818122    1.3950181343
H       -0.6585854716    3.5112952752   -0.2392833741
H        0.6310208810    4.3993357058    0.5972548840
H        1.0708475027    1.9774667460    0.6338196957
H       -4.1026196666   -2.2667102306    1.7098837292
H       -7.4119172781   -1.1492059601    4.5970228575
28   

C       -0.7908541965    0.1986826621    0.6994291811
C       -1.8157962274   -0.7490457009    0.8221635215
C       -1.8781960661    1.6038991536    2.3531319797
C       -4.0580945481    0.5560275521    3.3260618367
C       -2.8907037483    0.6466186771    2.4679671375
C       -0.8037337586    1.3874778838    1.4603293979
C       -2.8543701246   -0.5038120553    1.7119097819
C       -4.6915295561   -0.6365995712    3.0422404410
C       -5.7436563493   -1.3296083416    3.8250237614
C        1.0375587269    2.6073533854    2.6586746681
C       -0.1944525981    3.7071944585    0.7494595440
C        0.3269236650    2.3861506987    1.3194868451
N       -3.9462246309   -1.2990273596    2.0381988008
O       -5.5533278557   -2.3220947437    4.5044438432
O       -6.9415058336   -0.7022748329    3.8115625272
H        0.0237942612    0.0035400240    0.0115637407
H       -1.7941982542   -1.6635828151    0.2431601793
H       -1.9209517838    2.4982035436    2.9622782654
H       -4.3407731552    1.2558946654    4.1027154602
H        0.3563113236    3.0331258120    3.4013460652
H        1.8810638515    3.2928167698    2.5297956740
H        1.4222673770    1.6564293754    3.0408761551
H       -0.9276613572    4.1615052532    1.4227139097
H       -0.6704836365    3.5335534246   -0.2208517375
H        0.6321462155    4.4102856261    0.6073737711
H        1.0652134011    1.9867476292    0.6159822251
H       -4.1178162447   -2.2412786461    1.6977878347
H       -7.5114863257   -1.2319659271    4.3913052091
28   

C       -0.7409154020    0.1692356441    0.8096622971
C       -1.7429451049   -0.7940612601    0.9852905380
C       -1.7922545973    1.5820405754    2.4807076058
C       -3.9463953113    0.5322985146    3.5148979507
C       -2.7843278055    0.6106047028    2.6464396855
C       -0.7479937170    1.3700435281    1.5513261216
C       -2.7529427380   -0.5516270558    1.9078591104
C       -4.5678453863   -0.6674623433    3.2654296198
C       -5.7607136132   -1.2733499419    3.9280683613
C        1.1326186187    2.6252954264    2.6392254267
C       -0.2263201197    3.7030396847    0.8045554481
C        0.3512397028    2.3915455186    1.3430211611
N       -3.8345568385   -1.3468125119    2.2642337294
O       -5.7207123935   -2.0011817551    4.8993623941
O       -6.9343355752   -0.9422552326    3.3438255487
H        0.0486753283   -0.0208054811    0.0917917126
H       -1.7300750442   -1.7143325112    0.4151891910
H       -1.8323441338    2.4887944389    3.0713637703
H       -4.2577464244    1.2717180726    4.2423086263
H        0.4853202128    3.0345605903    3.4205889380
H        1.9528341886    3.3285136466    2.4642128739
H        1.5580448527    1.6817039498    2.9955532113
H       -0.9255040265    4.1466024524    1.5197863433
H       -0.7562332370    3.5203448370   -0.1357283255
H        0.5781381258    4.4200112559    0.6131511284
H        1.0545505646    2.0063920769    0.5970045284
H       -4.0457827576   -2.2676691170    1.8904834272
H       -7.6149758106   -1.3888964328    3.8716874774
28   

C       -0.7091444886    0.0989673130    0.9149779918
C       -1.6958781207   -0.8700038392    1.1400918425
C       -1.7279246908    1.5385113980    2.5831319019
C       -3.8724605688    0.5156319156    3.6605215502
C       -2.7064825163    0.5626544331    2.7957487400
C       -0.7081069054    1.3161685292    1.6295471056
C       -2.6829353741   -0.6164552388    2.0843093077
C       -4.4942707223   -0.6959417128    3.4531348401
C       -5.8127149268   -1.1594621454    3.9537379226
C        1.2090992367    2.5936733991    2.6136306140
C       -0.2484029546    3.6544935518    0.8461497576
C        0.3667012852    2.3490489555    1.3590359515
N       -3.7652981039   -1.3995203800    2.4650279106
O       -6.0629183745   -1.5071615922    5.0908484677
O       -6.7349402868   -1.2824774147    2.9707029670
H        0.0591600156   -0.0972768185    0.1760004890
H       -1.6940354320   -1.7993898134    0.5848342377
H       -1.7656609560    2.4611987403    3.1487702450
H       -4.2172298230    1.3032092506    4.3192787190
H        0.5959954801    2.9960777666    3.4256174339
H        2.0114723773    3.3058387806    2.3971888601
H        1.6620971102    1.6552385227    2.9489159999
H       -0.9117673483    4.0976538201    1.5948983775
H       -0.8256539345    3.4644381612   -0.0643417672
H        0.5397133774    4.3762349946    0.6097652452
H        1.0343236043    1.9680940698    0.5788648357
H       -4.0319197484   -2.2903799792    2.0555740197
H       -7.5319543208   -1.6131060156    3.4147412404
28   

C       -0.7026082426    0.1240960786    0.9331299384
C       -1.6959411658   -0.8326670028    1.1813585063
C       -1.6877709331    1.5932644885    2.5953821639
C       -3.8328451403    0.6090382497    3.7041335985
C       -2.6733341578    0.6298774993    2.8303073784
C       -0.6811913670    1.3495790862    1.6332235184
C       -2.6694476081   -0.5585580697    2.1339362777
C       -4.4701540256   -0.6024412540    3.5213735214
C       -5.7970469325   -1.0163893167    4.0153400257
C        1.2703367285    2.6043376186    2.5743334295
C       -0.2087930266    3.6824360764    0.8357596669
C        0.3995762553    2.3693133854    1.3375256955
N       -3.7574168768   -1.3242953283    2.5344288057
O       -6.1430820753   -1.0740225870    5.1799780831
O       -6.6002800587   -1.4865175586    3.0304703888
H        0.0548210223   -0.0881379402    0.1873848270
H       -1.7100287297   -1.7683119775    0.6368883373
H       -1.7105680423    2.5230720471    3.1500827720
H       -4.1683926723    1.4122810179    4.3488603618
H        0.6783461250    3.0136872090    3.3984696011
H        2.0763461505    3.3071042957    2.3413370876
H        1.7190846557    1.6607124334    2.9006501389
H       -0.8491785063    4.1364094833    1.5978911709
H       -0.8084063505    3.4990791570   -0.0615406888
H        0.5838622182    4.3928420440    0.5809016485
H        1.0457784511    1.9791247521    0.5440076388
H       -4.0564461470   -2.2052912160    2.1250325021
H       -7.4164869779   -1.7541913413    3.4825296018
28   

C       -0.7185394673    0.1453879344    0.9037255447
C       -1.7220244415   -0.8037980223    1.1403046135
C       -1.6883400759    1.6049371122    2.5833895493
C       -3.8410039543    0.6292100642    3.6840221314
C       -2.6838801862    0.6492296377    2.8068738254
C       -0.6843126162    1.3621699101    1.6184168261
C       -2.6927678738   -0.5310201549    2.0960622292
C       -4.4920259588   -0.5742330348    3.4858596909
C       -5.8049862226   -0.9857437453    3.9977311689
C        1.2761931927    2.5902934771    2.5775806456
C       -0.1866723142    3.6965189081    0.8430123449
C        0.4076514673    2.3736487433    1.3357582254
N       -3.7876582476   -1.2907541651    2.4894548755
O       -6.2134288495   -0.8290928908    5.1335999578
O       -6.5195907763   -1.7063875690    3.0979954281
H        0.0369982602   -0.0660236392    0.1558385374
H       -1.7456044413   -1.7329514290    0.5851440836
H       -1.7011335040    2.5279570764    3.1496608939
H       -4.1645072855    1.4240966064    4.3453079363
H        0.6854248787    2.9990394003    3.4028875848
H        2.0898715780    3.2869523910    2.3530274330
H        1.7145379362    1.6397945425    2.8980200687
H       -0.8260062563    4.1495604720    1.6066010267
H       -0.7843843584    3.5263540272   -0.0581450202
H        0.6133930264    4.4018562371    0.5974147666
H        1.0531140834    1.9839579220    0.5414015198
H       -4.0987227304   -2.1664738426    2.0766548585
H       -7.3379601672   -1.9412102825    3.5645922108
28   

C       -0.7403432617    0.1702158491    0.8629816044
C       -1.7560257181   -0.7710050061    1.0783457068
C       -1.7069698877    1.6167232747    2.5558135412
C       -3.8732862278    0.6455670734    3.6338154792
C       -2.7145161683    0.6690201915    2.7584787744
C       -0.6981525889    1.3762696653    1.5952450259
C       -2.7310546832   -0.5010328796    2.0304778632
C       -4.5359977470   -0.5478606947    3.4122954464
C       -5.8264074028   -0.9786581975    3.9521444807
C        1.2661745214    2.5700642253    2.5905805084
C       -0.1656488116    3.7135181340    0.8542508791
C        0.4085127983    2.3782528614    1.3370400286
N       -3.8337497629   -1.2567752972    2.4094790391
O       -6.2991767223   -0.6495571103    5.0249264598
O       -6.4499838315   -1.8964075007    3.1706958343
H        0.0191198302   -0.0394114576    0.1185796543
H       -1.7847879140   -1.6925718020    0.5109145478
H       -1.7130860697    2.5310415997    3.1361594327
H       -4.1854099111    1.4266877175    4.3168182004
H        0.6715115131    2.9760158247    3.4144629195
H        2.0902137406    3.2597724003    2.3829659728
H        1.6901137149    1.6108404916    2.9043435347
H       -0.8083557533    4.1641371760    1.6164514838
H       -0.7552784599    3.5609660542   -0.0553405751
H        0.6448018248    4.4128129982    0.6260704885
H        1.0581488018    1.9907766011    0.5450079948
H       -4.1430885781   -2.1354253410    2.0008039298
H       -7.2667932006   -2.1119984656    3.6494178175
28   

C       -0.7424711679    0.2164507737    0.8118378156
C       -1.7697006091   -0.7160285588    1.0097464912
C       -1.6911117307    1.6429871206    2.5316588357
C       -3.8616785239    0.6727133667    3.6019861071
C       -2.7097387329    0.7037895104    2.7175975732
C       -0.6855630891    1.4081555550    1.5662884570
C       -2.7413312945   -0.4518969718    1.9669435443
C       -4.5400916984   -0.5068694271    3.3555514157
C       -5.7976079818   -0.9650496595    3.9413779777
C        1.2833790964    2.5726329099    2.5907563711
C       -0.1223273492    3.7447703473    0.8522112651
C        0.4346227000    2.4000100031    1.3281674362
N       -3.8492570231   -1.2042869090    2.3372984269
O       -6.3343521811   -0.5044209199    4.9328328499
O       -6.3297484640   -2.0337474840    3.2951001867
H        0.0149215609    0.0109379206    0.0641895012
H       -1.8089689972   -1.6271699829    0.4263305841
H       -1.6851013059    2.5456401264    3.1300021752
H       -4.1531786216    1.4343717875    4.3155368588
H        0.6865203674    2.9792777118    3.4126786233
H        2.1168218695    3.2546296592    2.3955361888
H        1.6939354400    1.6064322837    2.9008725508
H       -0.7685494804    4.1938250601    1.6123987416
H       -0.7044423784    3.6058812245   -0.0643868148
H        0.6966401480    4.4386370010    0.6383689726
H        1.0875569864    2.0126964349    0.5387753073
H       -4.1548090180   -2.0879524304    1.9361817681
H       -7.1404136401   -2.2396205628    3.7884544964
28   

C       -0.7819191312    0.2344674839    0.7772703037
C       -1.8239802743   -0.6845614952    0.9601146219
C       -1.7179912822    1.6568753877    2.5073607319
C       -3.9008748495    0.7017331899    3.5659915564
C       -2.7512417499    0.7309735243    2.6785079505
C       -0.7109336637    1.4170241745    1.5448249178
C       -2.7965062903   -0.4160178843    1.9151795348
C       -4.5963085683   -0.4641253137    3.3025064698
C       -5.8215452716   -0.9477713425    3.9326791651
C        1.2683499754    2.5402064303    2.5962838881
C       -0.1047017607    3.7504413831    0.8577557834
C        0.4270732697    2.3927631673    1.3253659050
N       -3.9126727290   -1.1597563610    2.2783025251
O       -6.4421167964   -0.3834280649    4.8158495214
O       -6.2440795689   -2.1388345883    3.4365057738
H       -0.0231857586    0.0249658857    0.0320934291
H       -1.8728188758   -1.5897167514    0.3681661344
H       -1.7004001130    2.5519053313    3.1168279247
H       -4.1728552729    1.4494343917    4.3017116860
H        0.6716409399    2.9489502388    3.4172684089
H        2.1141394068    3.2104902373    2.4139889080
H        1.6609888082    1.5648011020    2.9007554079
H       -0.7502607531    4.2022144114    1.6169036814
H       -0.6811956033    3.6292561903   -0.0648792877
H        0.7267776808    4.4333423127    0.6573573051
H        1.0802635614    2.0023520694    0.5377148805
H       -4.2107457606   -2.0525584986    1.8918954251
H       -7.0526760096   -2.3389843767    3.9356192982
28   

C       -0.7994862576    0.2664483670    0.7399866697
C       -1.8510723487   -0.6446459426    0.9071990956
C       -1.7286486063    1.6759070304    2.4843466348
C       -3.9174267811    0.7216335631    3.5317246204
C       -2.7712555521    0.7577628671    2.6400637709
C       -0.7199115948    1.4382651958    1.5229987958
C       -2.8246561494   -0.3787875902    1.8619303879
C       -4.6235517380   -0.4336223820    3.2503700097
C       -5.8116275527   -0.9527619262    3.9237487212
C        1.2641647277    2.5281350579    2.6014418009
C       -0.0832864133    3.7718180818    0.8664825767
C        0.4304718252    2.4036077381    1.3229360252
N       -3.9442386664   -1.1209380820    2.2175997463
O       -6.5321557814   -0.3307616817    4.6834922571
O       -6.1005622414   -2.2349958547    3.5841065872
H       -0.0392464416    0.0584267822   -0.0040695855
H       -1.9052780268   -1.5426811730    0.3049621955
H       -1.7035773168    2.5618341435    3.1067112910
H       -4.1728502238    1.4516281589    4.2907485278
H        0.6663112752    2.9349628041    3.4225367323
H        2.1187044610    3.1907435086    2.4323279737
H        1.6437585349    1.5452636759    2.8983775864
H       -0.7297903532    4.2218840110    1.6258464431
H       -0.6540743823    3.6668015850   -0.0616588481
H        0.7568704844    4.4479482332    0.6798243056
H        1.0852752241    2.0146179999    0.5359198608
H       -4.2287025033   -2.0231241489    1.8430839795
H       -6.9065111283   -2.4450025587    4.0834099337
28   

C       -0.8611262335    0.2760558419    0.7108638941
C       -1.9256372891   -0.6223054329    0.8646560415
C       -1.7672088629    1.6694185797    2.4800403730
C       -3.9605413343    0.7219725115    3.5239744369
C       -2.8222703014    0.7634211457    2.6227898200
C       -0.7635483603    1.4334936075    1.5129686807
C       -2.8938769444   -0.3582935825    1.8253491389
C       -4.6860709524   -0.4163111872    3.2232415021
C       -5.8386814728   -0.9680592267    3.9368512601
C        1.2287624113    2.4897059683    2.6133009364
C       -0.0916873569    3.7614812532    0.8779493325
C        0.4016746061    2.3840787534    1.3285991908
N       -4.0195388138   -1.0938758429    2.1753895774
O       -6.6632245739   -0.3301812168    4.5660720401
O       -5.9841459272   -2.3054907407    3.7582716408
H       -0.1045286774    0.0689449708   -0.0371516664
H       -1.9928774318   -1.5100970114    0.2487050579
H       -1.7275864537    2.5435876056    3.1180646816
H       -4.1913955848    1.4317547903    4.3094544524
H        0.6317478160    2.9003491526    3.4330712121
H        2.0934179855    3.1414076014    2.4534081979
H        1.5929719640    1.5000620293    2.9069799075
H       -0.7389521490    4.2135322515    1.6355131609
H       -0.6563378681    3.6698219934   -0.0553518400
H        0.7579926805    4.4286983646    0.7027160680
H        1.0568979918    1.9916717771    0.5436287069
H       -4.2971022769   -2.0004186268    1.8067834640
H       -6.7867164727   -2.5335808214    4.2549477937
28   

C       -0.8958473048    0.3007644189    0.6803678446
C       -1.9754846673   -0.5815799906    0.8209260103
C       -1.7866153024    1.6909622865    2.4596798505
C       -3.9938153491    0.7631082391    3.4915516086
C       -2.8566078647    0.8006027878    2.5892876988
C       -0.7827552482    1.4483342903    1.4944974806
C       -2.9432843648   -0.3113765957    1.7803928220
C       -4.7373286877   -0.3591525146    3.1767644894
C       -5.8680229722   -0.9306431795    3.9184847065
C        1.2198022697    2.4620419432    2.6171818627
C       -0.0673853921    3.7691355747    0.8830851141
C        0.3998134829    2.3802881333    1.3260793431
N       -4.0786631203   -1.0355689889    2.1227347044
O       -6.8039965676   -0.3109462785    4.3891141453
O       -5.8585705502   -2.2868306834    3.9318200353
H       -0.1391244558    0.0883059144   -0.0660228258
H       -2.0537546343   -1.4627368023    0.1968092068
H       -1.7346276705    2.5571286695    3.1076347338
H       -4.2058418705    1.4601534566    4.2934061149
H        0.6244139197    2.8766202526    3.4361436401
H        2.0964701791    3.1001332391    2.4681300347
H        1.5652282004    1.4641751999    2.9056999574
H       -0.7126228770    4.2256574395    1.6397022734
H       -0.6267194635    3.6941723881   -0.0548926519
H        0.7944435051    4.4235419121    0.7192760004
H        1.0538879857    1.9830030554    0.5426033063
H       -4.3522600411   -1.9441792018    1.7571910534
H       -6.6627414453   -2.5341125383    4.4163234881
28   

C       -0.9225932734    0.3168766424    0.6560034673
C       -2.0107890945   -0.5566327701    0.7845859968
C       -1.8016132263    1.6928551083    2.4521362462
C       -4.0162755048    0.7696781885    3.4731167595
C       -2.8801353596    0.8110495783    2.5698177512
C       -0.7992616991    1.4528997643    1.4846402780
C       -2.9766722284   -0.2892324756    1.7467820004
C       -4.7699200906   -0.3396920674    3.1436219910
C       -5.8940696780   -0.9315941741    3.8932503350
C        1.2088811148    2.4380237738    2.6240776041
C       -0.0601147499    3.7716126642    0.8966661338
C        0.3928461193    2.3749207816    1.3293646259
N       -4.1176861770   -1.0084220707    2.0803640848
O       -6.9383429236   -0.3764327842    4.1773857444
O       -5.7256676275   -2.2544803269    4.1336362862
H       -0.1671038257    0.1063594118   -0.0921919514
H       -2.0965677487   -1.4293463125    0.1496916115
H       -1.7415011544    2.5498853289    3.1114086230
H       -4.2164471201    1.4540892016    4.2885777292
H        0.6146703936    2.8515139491    3.4444242340
H        2.0921282501    3.0689198805    2.4834495241
H        1.5437829752    1.4345400797    2.9054399587
H       -0.7046043716    4.2270070393    1.6546041648
H       -0.6161128564    3.7097436863   -0.0442506754
H        0.8081291043    4.4197684589    0.7421796514
H        1.0462957768    1.9783674177    0.5449894470
H       -4.3916589316   -1.9114006139    1.7025462801
H       -6.5352032128   -2.5280214281    4.5941012035
28   

C       -0.9246724515    0.2880043235    0.6435241573
C       -1.9992304608   -0.6038821848    0.7579227644
C       -1.8371805796    1.6343522319    2.4456386109
C       -4.0482813151    0.6699306682    3.4391282235
C       -2.9026450924    0.7347730355    2.5486991367
C       -0.8247643157    1.4184658435    1.4827283878
C       -2.9750546986   -0.3601522710    1.7162952111
C       -4.7772240244   -0.4476294908    3.0966810807
C       -5.9288305161   -1.0575531594    3.8076997447
C        1.1706253367    2.4090836769    2.6359558361
C       -0.1198623057    3.7598960094    0.9378421131
C        0.3529019935    2.3610666787    1.3418867089
N       -4.1080096557   -1.0988019994    2.0332410645
O       -7.0651516508   -0.6275459136    3.8273465415
O       -5.6286840426   -2.2533739346    4.3661931788
H       -0.1615146119    0.0962464414   -0.1019356848
H       -2.0672054274   -1.4720188959    0.1146570314
H       -1.7950297841    2.4869543001    3.1119836128
H       -4.2708919748    1.3503247565    4.2519094235
H        0.5715617347    2.7958661547    3.4657688576
H        2.0440946771    3.0559075853    2.5071697842
H        1.5209797882    1.4049399036    2.8953426443
H       -0.7673375433    4.1924918486    1.7064674780
H       -0.6782294930    3.7090248145   -0.0023290103
H        0.7394050336    4.4221241211    0.7931260560
H        1.0097683789    1.9895116742    0.5481697362
H       -4.3739779182   -1.9902507749    1.6246454429
H       -6.4573151616   -2.5562405586    4.7703700208
28   

C       -0.8217960689    0.2400541716    0.7080053166
C       -1.8624534937   -0.6893308375    0.8349900340
C       -1.7635745240    1.5568306757    2.5171150885
C       -3.9601724292    0.5444208695    3.4978403269
C       -2.7970236458    0.6217171428    2.6307390923
C       -0.7540430583    1.3752447692    1.5439518253
C       -2.8371039301   -0.4778501888    1.8021170989
C       -4.6512399243   -0.5942563146    3.1606607866
C       -5.9479945077   -1.1089150896    3.6923408626
C        1.2361654771    2.4194875165    2.6491033619
C       -0.1534842735    3.7538733817    1.0173712207
C        0.3808895769    2.3654030536    1.3805934677
N       -3.9578249460   -1.2386893740    2.1092317561
O       -7.0409112536   -0.8423953158    3.2349022983
O       -5.8117749755   -1.9273975281    4.7599937150
H       -0.0626371830    0.0766677654   -0.0482287992
H       -1.9100859546   -1.5565470499    0.1886561221
H       -1.7494539565    2.4160544185    3.1760685612
H       -4.2459140262    1.2614176665    4.2574944871
H        0.6479632502    2.7657304817    3.5042611541
H        2.0800051030    3.1018829771    2.5073003267
H        1.6318848542    1.4244340891    2.8762455017
H       -0.7882445874    4.1521739488    1.8145277487
H       -0.7414929148    3.6996483306    0.0956188007
H        0.6772421650    4.4478582109    0.8555766610
H        1.0243828870    2.0326868298    0.5591639467
H       -4.2438555012   -2.0939249290    1.6412134040
H       -6.7168096855   -2.1770594471    5.0048994249
28   

C       -0.7439206781    0.1572875832    0.7589806947
C       -1.7460335586   -0.8104602126    0.9106145258
C       -1.6912246871    1.4398044615    2.5891294488
C       -3.8513081735    0.3746548659    3.5871694686
C       -2.6873640173    0.4681730336    2.7247174175
C       -0.6992227839    1.2956433358    1.5923577304
C       -2.7061626342   -0.6339632134    1.8992624011
C       -4.5177212593   -0.7890634660    3.2618941724
C       -5.8931500848   -1.1982705473    3.6370293352
C        1.2926309306    2.4020263793    2.6248764570
C       -0.2159162087    3.7073318477    1.0779220252
C        0.3858895082    2.3342678114    1.3939620568
N       -3.8084682921   -1.4199696065    2.2124623023
O       -6.8444208643   -1.1888765178    2.8768579809
O       -6.0403168707   -1.4929583732    4.9485448419
H        0.0002043180    0.0239533429   -0.0178021511
H       -1.7804571733   -1.6759023870    0.2610652097
H       -1.6985581659    2.3030946828    3.2428448823
H       -4.1830521239    1.1176677445    4.3018650952
H        0.7278035053    2.7086576124    3.5104339000
H        2.1011789925    3.1209409258    2.4599428312
H        1.7374192000    1.4202236640    2.8158934907
H       -0.8267150309    4.0713613022    1.9093956884
H       -0.8436981255    3.6449483159    0.1833084788
H        0.5803554937    4.4342305678    0.8894004709
H        1.0041591107    2.0401074486    0.5391371151
H       -4.1146455978   -2.2441550174    1.7024283392
H       -6.9828549994   -1.6956473008    5.0585042098
28   

C       -0.7579420641    0.1641611341    0.7396950655
C       -1.7583565005   -0.8059157792    0.8876179231
C       -1.6846072780    1.4183046765    2.5998626233
C       -3.8344114143    0.3388104427    3.6042226102
C       -2.6790877480    0.4445102359    2.7316999730
C       -0.7040771200    1.2897773620    1.5897044422
C       -2.7072940860   -0.6447543586    1.8895320592
C       -4.5059452877   -0.8219427994    3.2684075845
C       -5.8724523689   -1.2385256555    3.6315096434
C        1.2965764081    2.3858083367    2.6170232589
C       -0.2290758918    3.7081767440    1.1016531031
C        0.3779033721    2.3322017789    1.3942898840
N       -3.8073502590   -1.4343803836    2.2013736009
O       -6.7562650720   -1.4747885331    2.8241463212
O       -6.1182744181   -1.2205598063    4.9616026611
H       -0.0227036468    0.0429118509   -0.0474550487
H       -1.8004676652   -1.6612183476    0.2251873238
H       -1.6849396664    2.2717170695    3.2664740159
H       -4.1605203859    1.0714987060    4.3322041069
H        0.7401535532    2.6806555809    3.5118492512
H        2.1025571759    3.1078367759    2.4531284467
H        1.7444332632    1.4023064568    2.7913742147
H       -0.8324668910    4.0604139177    1.9435589371
H       -0.8653630468    3.6561702780    0.2123956173
H        0.5641609792    4.4388121235    0.9148012100
H        0.9882081182    2.0498657088    0.5298106478
H       -4.1307746660   -2.2420596053    1.6748469647
H       -7.0537186990   -1.4634516909    5.0491610444
28   

C       -0.7797352249    0.1994893159    0.7074153614
C       -1.7853577780   -0.7663972364    0.8463651305
C       -1.6867329468    1.4299930440    2.5930852971
C       -3.8314042601    0.3422325033    3.6013901004
C       -2.6862605689    0.4602411298    2.7164797433
C       -0.7133568201    1.3111140339    1.5747661845
C       -2.7266015288   -0.6152374030    1.8569288719
C       -4.5104849702   -0.8114995654    3.2529426883
C       -5.8466392577   -1.2737979431    3.6447136256
C        1.2973674943    2.3808107693    2.6116578105
C       -0.2233623764    3.7313697204    1.1161785596
C        0.3755536500    2.3482466877    1.3904110662
N       -3.8258793619   -1.4060724592    2.1674968738
O       -6.6656075215   -1.7429806067    2.8685574269
O       -6.1574039980   -1.0353122512    4.9399902779
H       -0.0496261965    0.0854076705   -0.0855585951
H       -1.8363515006   -1.6118525860    0.1719964048
H       -1.6763816563    2.2719576338    3.2740301306
H       -4.1416067713    1.0567204820    4.3541450518
H        0.7452198362    2.6687859755    3.5113456272
H        2.1079431613    3.0991968011    2.4545330448
H        1.7388976698    1.3922637830    2.7731818022
H       -0.8231940339    4.0764318707    1.9635923120
H       -0.8615300627    3.6942846077    0.2275225965
H        0.5740165794    4.4594067956    0.9370349899
H        0.9822705281    2.0725573512    0.5212724492
H       -4.1575851133   -2.2098153072    1.6391480892
H       -7.0704160467   -1.3480570459    5.0422306873
28   

C       -0.8191411197    0.2272798725    0.6715787887
C       -1.8334231237   -0.7304161689    0.8032397100
C       -1.7038804979    1.4415346342    2.5784261373
C       -3.8450890314    0.3524985424    3.5947048168
C       -2.7118432587    0.4796941630    2.6951717584
C       -0.7369674989    1.3263343156    1.5534608402
C       -2.7672351087   -0.5837428165    1.8212130941
C       -4.5345213537   -0.7925578969    3.2365307664
C       -5.8312240936   -1.3082785185    3.6743937770
C        1.2859690234    2.3634041402    2.6014537814
C       -0.2198966919    3.7442832514    1.1185288693
C        0.3639797566    2.3524590458    1.3797408867
N       -3.8663923247   -1.3734413608    2.1341205518
O       -6.5694137211   -1.9889497970    2.9756171731
O       -6.2046952231   -0.9015006667    4.9101984520
H       -0.0935716503    0.1156996891   -0.1259034025
H       -1.8951542630   -1.5677117537    0.1196293443
H       -1.6799576805    2.2729170837    3.2719241853
H       -4.1330556206    1.0473620951    4.3743037720
H        0.7373074220    2.6497579443    3.5037759826
H        2.1048203269    3.0737588536    2.4508286760
H        1.7161428994    1.3684657852    2.7542134571
H       -0.8168990788    4.0870778357    1.9688688611
H       -0.8576476211    3.7224095106    0.2290762184
H        0.5853065582    4.4655148230    0.9470882035
H        0.9680731594    2.0781555825    0.5083387248
H       -4.1998173439   -2.1830249043    1.6150630202
H       -7.0835703431   -1.2893508805    5.0484065657
28   

C       -0.8908738929    0.2300980638    0.6208643039
C       -1.9188702468   -0.7134181009    0.7474849095
C       -1.7422719916    1.4321053472    2.5507068471
C       -3.8808115058    0.3506523709    3.5824137867
C       -2.7634873049    0.4838179759    2.6633757839
C       -0.7848733643    1.3155521127    1.5169109839
C       -2.8420916817   -0.5664241175    1.7749217900
C       -4.5873763992   -0.7815025797    3.2157750104
C       -5.8371037687   -1.3473621823    3.7156515751
C        1.2532109959    2.3147249153    2.5758926470
C       -0.2276559459    3.7250713929    1.0953543353
C        0.3339325653    2.3235393424    1.3518060340
N       -3.9432576039   -1.3506574710    2.0936546638
O       -6.4818163694   -2.2064048139    3.1287967693
O       -6.2681295295   -0.8125063491    4.8822381707
H       -0.1720631226    0.1169864886   -0.1825003520
H       -1.9972024697   -1.5420424956    0.0550527316
H       -1.6982889344    2.2519859896    3.2568092945
H       -4.1368771977    1.0229423547    4.3924189688
H        0.7078634681    2.6074813859    3.4781427371
H        2.0842824408    3.0116609513    2.4295160957
H        1.6663330478    1.3122240307    2.7263191677
H       -0.8229343156    4.0720465693    1.9452356438
H       -0.8622527059    3.7169761309    0.2034201599
H        0.5889698413    4.4348955354    0.9305519121
H        0.9361844280    2.0432376226    0.4810376163
H       -4.2759735298   -2.1706021513    1.5901491765
H       -7.1027073257   -1.2687511435    5.0754415498
28   

C       -0.9242981304    0.2957631448    0.5687670433
C       -1.9643004772   -0.6367167499    0.6774075745
C       -1.7570471392    1.4679612727    2.5249650902
C       -3.8931746733    0.3776671001    3.5531632264
C       -2.7894559125    0.5299501132    2.6205540363
C       -0.8026224018    1.3604746315    1.4874098406
C       -2.8834675814   -0.4997280026    1.7098119972
C       -4.6110752842   -0.7411827637    3.1681267914
C       -5.8023309394   -1.3745190379    3.7238753191
C        1.2434415433    2.3144845918    2.5756826070
C       -0.2071454072    3.7656575304    1.1045747294
C        0.3328211122    2.3532170720    1.3453707760
N       -3.9849730002   -1.2852652259    2.0236562725
O       -6.3227331952   -2.3789757096    3.2558742072
O       -6.3065837515   -0.7606171366    4.8201214080
H       -0.2068649488    0.1888043631   -0.2366681679
H       -2.0524082179   -1.4517029551   -0.0298829511
H       -1.6990275684    2.2699956031    3.2502942065
H       -4.1200566946    1.0162631156    4.3983812811
H        0.6968252784    2.6040321641    3.4781786131
H        2.0859930576    3.0005027693    2.4440078263
H        1.6404524470    1.3040191785    2.7159390050
H       -0.8047042623    4.1081941890    1.9546793822
H       -0.8345245584    3.7787627944    0.2076182126
H        0.6204687413    4.4663502954    0.9564574943
H        0.9375650415    2.0760032359    0.4753415883
H       -4.3057215429   -2.1159644921    1.5298940036
H       -7.0822978255   -1.2878551055    5.0697343761
