19   

C        1.7517625308   -1.2355117426   -0.1148686369
C        0.7695237400   -0.4928804583    0.5282075747
C        2.7659819013   -1.8361860216    0.6329669652
C        0.8113323728   -0.3518700772    1.9143565378
C        2.8280617124   -1.7222434619    2.0404848157
C        1.8262642399   -0.9506732063    2.6864757229
C        3.9374114945   -2.3782579180    2.7466363214
C        1.8128165252   -0.7215858859    4.1794083479
N        4.0909196970   -2.6022396904    4.0939969385
N        5.0301618460   -2.8515689983    2.1031537344
N        5.2931482951   -3.2248884548    4.2120981088
N        5.8367334025   -3.3691389422    3.0618568660
H        1.7343432843   -1.3495881575   -1.1920283492
H       -0.0210831664   -0.0231690979   -0.0444917109
H        3.5233070257   -2.4112596189    0.1127904622
H        0.0421272840    0.2370170815    2.3988349981
H        1.6357328037   -1.6659660446    4.7028729866
H        2.7686645990   -0.3005586566    4.5058401797
H        1.0225554801   -0.0211879241    4.4634984781
19   

C        1.7360802174   -1.2608085458   -0.1257999961
C        0.7621498958   -0.5031028411    0.5151662948
C        2.7468486518   -1.8653932669    0.6241824144
C        0.8108078342   -0.3470950048    1.9005202654
C        2.8048605819   -1.7452875433    2.0284876693
C        1.8220583411   -0.9504426122    2.6730367226
C        3.9194818294   -2.3869559898    2.7407815494
C        1.8391714626   -0.6975049490    4.1617325287
N        3.9743316873   -2.7854903234    4.0543095148
N        5.1183903895   -2.6198858990    2.1598426355
N        5.2315632072   -3.2775165043    4.2136949243
N        5.8928908604   -3.1818732048    3.1204049686
H        1.7154287116   -1.3813566378   -1.2021822290
H       -0.0251648906   -0.0299728165   -0.0592412081
H        3.5057843592   -2.4497559770    0.1164345193
H        0.0531177959    0.2579879939    2.3831848503
H        1.5969886471   -1.6182716437    4.7009076887
H        2.8276434432   -0.3474314627    4.4749260984
H        1.1072719028    0.0661723910    4.4390746119
19   

C        1.7325406010   -1.2689968760   -0.1326610720
C        0.7701364588   -0.4957300652    0.5103526746
C        2.7369638888   -1.8865089045    0.6161704950
C        0.8254205849   -0.3339728883    1.8959158806
C        2.7904109276   -1.7678567995    2.0176848014
C        1.8298562457   -0.9513841609    2.6651502867
C        3.9059646115   -2.4037067755    2.7384499902
C        1.8738522263   -0.6959583337    4.1525157874
N        3.8741797482   -2.9820958384    3.9830569083
N        5.1751592333   -2.4030973753    2.2762030273
N        5.1612797550   -3.3532261486    4.2172623835
N        5.9125334490   -3.0190456227    3.2333301648
H        1.7083515899   -1.3892670465   -1.2089832723
H       -0.0116597812   -0.0125201318   -0.0631940117
H        3.4956780504   -2.4786176487    0.1170662816
H        0.0810409216    0.2860158375    2.3803635180
H        1.5932648291   -1.6031997302    4.6959206763
H        2.8823198943   -0.3974302846    4.4556762255
H        1.1835079811    0.1041198182    4.4337468316
19   

C        2.0600226019   -0.6865338719   -0.1165514583
C        0.8802318445   -0.3020910457    0.5172407471
C        3.0595565481   -1.3330624220    0.6150352472
C        0.7117525662   -0.5533488079    1.8811230654
C        2.8906584990   -1.6312339081    1.9777833104
C        1.7084956498   -1.2058518280    2.6301188222
C        4.0016554027   -2.2597225452    2.7199436545
C        1.5100024184   -1.4130032183    4.1120341594
N        3.9161224272   -3.3391532078    3.5617637873
N        5.2484913278   -1.7466455279    2.7605333720
N        5.1736455178   -3.4710597293    4.0631997315
N        5.9422771868   -2.5529524964    3.6022195071
H        2.2069594173   -0.4811822971   -1.1699897918
H        0.1011026096    0.2005835653   -0.0430459013
H        3.9879936049   -1.6205937084    0.1351528251
H       -0.2019600986   -0.2316050084    2.3656406302
H        1.3783133160   -2.4778827123    4.3259345510
H        2.3818929021   -1.0478695688    4.6640647581
H        0.6275788824   -0.8746591978    4.4687693308
19   

C        2.0442277348   -0.7085060815   -0.1338055593
C        0.8736460381   -0.3091423176    0.5104309055
C        3.0517594519   -1.3481119423    0.5938108521
C        0.7194209178   -0.5412973414    1.8802095467
C        2.8974648847   -1.6165616502    1.9627401206
C        1.7241320840   -1.1859711032    2.6243539574
C        4.0014419009   -2.2501989891    2.7188404210
C        1.5480732099   -1.3951703103    4.1084303107
N        3.9617076361   -3.4804715378    3.3203644642
N        5.1577401764   -1.6256035124    3.0155042546
N        5.1629412640   -3.5758330992    3.9521070932
N        5.8526619054   -2.5073456231    3.7771079835
H        2.1765505616   -0.5209934817   -1.1924838707
H        0.0890681142    0.1876606625   -0.0474839273
H        3.9720353793   -1.6511568476    0.1083161881
H       -0.1884616654   -0.2133934781    2.3714872172
H        1.4815821926   -2.4648631179    4.3290893222
H        2.4032072653   -0.9787102589    4.6502792649
H        0.6385705495   -0.9067258286    4.4689174351
19   

C        2.0189666156   -0.7822269960   -0.1503958715
C        0.8615575684   -0.3513971948    0.4987326441
C        3.0362455705   -1.3996645514    0.5832527998
C        0.7250571371   -0.5389724377    1.8776267342
C        2.9114550334   -1.5936233301    1.9668733952
C        1.7406401997   -1.1585090924    2.6278390218
C        4.0006464738   -2.2497473894    2.7296371082
C        1.5774500777   -1.3534546904    4.1148782758
N        4.1207864533   -3.5935538471    2.9589844018
N        5.0230584174   -1.5822189202    3.2959847654
N        5.2608610002   -3.6960537570    3.6950454916
N        5.7816799134   -2.5381639677    3.8887810216
H        2.1315997004   -0.6398808281   -1.2183447302
H        0.0698511252    0.1278662624   -0.0644291433
H        3.9411790243   -1.7390728096    0.0930965707
H       -0.1783191857   -0.1999230862    2.3696279796
H        1.6283920027   -2.4191424299    4.3592377116
H        2.3792122014   -0.8343780499    4.6494247330
H        0.6167408123   -0.9613917477    4.4599645182
19   

C        1.9909671226   -0.8611203577   -0.1519677691
C        0.8481052448   -0.3910009373    0.4942189512
C        3.0135147068   -1.4548076868    0.5934511092
C        0.7279875527   -0.5255889857    1.8802869149
C        2.9214957066   -1.5676318704    1.9894390053
C        1.7504629420   -1.1195608555    2.6421232130
C        3.9981609506   -2.2489430616    2.7439291312
C        1.5873943546   -1.2798311724    4.1334455233
N        4.3720242676   -3.5568758012    2.5892223763
N        4.8598830434   -1.6116876866    3.5592653039
N        5.4554008138   -3.6854678116    3.4024510756
N        5.7383911125   -2.5643459964    3.9604380437
H        2.0871752958   -0.7713742283   -1.2272155479
H        0.0519641916    0.0703558329   -0.0775733704
H        3.9018329471   -1.8360064907    0.1030779070
H       -0.1703474261   -0.1683586073    2.3686451656
H        1.7065209824   -2.3315948128    4.4121324148
H        2.3466651539   -0.6909869236    4.6572119619
H        0.5990088581   -0.9438941900    4.4591098956
19   

C        1.9879074057   -0.8949767879   -0.1433230034
C        0.8528613519   -0.3927801831    0.4898640912
C        2.9969488064   -1.4929119233    0.6162054619
C        0.7267796137   -0.5024962645    1.8767490670
C        2.9062723215   -1.5765858363    2.0161713816
C        1.7362815276   -1.0996010505    2.6540212287
C        3.9688229597   -2.2750414679    2.7657164490
C        1.5454131479   -1.2417207386    4.1444373005
N        4.5397405068   -3.4663596519    2.4007738920
N        4.6573535591   -1.7310448502    3.7899223344
N        5.5447001469   -3.6414267940    3.3009593845
N        5.6141566860   -2.6406204388    4.1012706881
H        2.0886570301   -0.8280218891   -1.2198251500
H        0.0663876946    0.0719175125   -0.0925063230
H        3.8769628142   -1.8997691931    0.1310467033
H       -0.1684082226   -0.1239107446    2.3547146946
H        1.7251316640   -2.2770776718    4.4506341989
H        2.2481105222   -0.5914236573    4.6741096611
H        0.5282301982   -0.9675517793    4.4376840752
19   

C        1.9757890817   -0.9119442398   -0.1374500759
C        0.8534933825   -0.3904189210    0.4998495323
C        2.9815345252   -1.5183150356    0.6187599052
C        0.7377707315   -0.4891647172    1.8875647958
C        2.9027742339   -1.5971760763    2.0219132325
C        1.7436361935   -1.0946941457    2.6641849726
C        3.9744814546   -2.2924191061    2.7533898635
C        1.5395833603   -1.2245864472    4.1546899682
N        4.7041239544   -3.3463129750    2.2642053404
N        4.5039126765   -1.8806023832    3.9255309946
N        5.6397603694   -3.5804874592    3.2233609017
N        5.5256157457   -2.7349759175    4.1812694375
H        2.0703797358   -0.8525849984   -1.2149705837
H        0.0689237957    0.0811548598   -0.0795628413
H        3.8518405808   -1.9340173193    0.1235795947
H       -0.1492257401   -0.0948209440    2.3680938370
H        1.7448554041   -2.2500214176    4.4775900491
H        2.2130362108   -0.5441727628    4.6844557886
H        0.5105548280   -0.9799188573    4.4322810691
19   

C        1.9720517561   -0.9153368308   -0.1371540417
C        0.8588109870   -0.3807685324    0.5018931224
C        2.9734671035   -1.5297644120    0.6171836327
C        0.7495894344   -0.4730059631    1.8895871590
C        2.8998683855   -1.6129742853    2.0227449082
C        1.7500598044   -1.0878931681    2.6673893615
C        3.9847233421   -2.2993167802    2.7395063757
C        1.5319282930   -1.1984911145    4.1582113280
N        4.8519392789   -3.2004081578    2.1719290784
N        4.3631397251   -2.0580804643    4.0145574999
N        5.7208498984   -3.5117502158    3.1706461971
N        5.4398653898   -2.8526083169    4.2338380326
H        2.0644317638   -0.8585059828   -1.2150174188
H        0.0769565077    0.0976467264   -0.0755915152
H        3.8369852215   -1.9477892803    0.1123535457
H       -0.1310252957   -0.0647362091    2.3702526441
H        1.6930350803   -2.2288579814    4.4899762280
H        2.2242534860   -0.5375246242    4.6883184268
H        0.5111152314   -0.9139795445    4.4279632233
19   

C        1.9636901495   -0.9293404321   -0.1292886448
C        0.8548998248   -0.3896800503    0.5104017750
C        2.9655320479   -1.5425286725    0.6245106246
C        0.7531691863   -0.4724261601    1.8984491763
C        2.8958956685   -1.6285105727    2.0320643820
C        1.7533187832   -1.0870386955    2.6784127058
C        3.9953571539   -2.2994207211    2.7397823891
C        1.5346371143   -1.1609320367    4.1721214841
N        4.9885175921   -3.0287477678    2.1307888990
N        4.2340750000   -2.2555283306    4.0704810047
N        5.7976006595   -3.4261046766    3.1486597442
N        5.3629129529   -2.9798909852    4.2685361837
H        2.0534205327   -0.8764510743   -1.2075872930
H        0.0721801909    0.0883578925   -0.0662375754
H        3.8249423195   -1.9591728771    0.1118877202
H       -0.1229556186   -0.0537718859    2.3783852448
H        1.6122330979   -2.1969298188    4.5158240046
H        2.2773420976   -0.5482994090    4.6920580912
H        0.5415003938   -0.7926779767    4.4437252953
19   

C        1.9490637764   -0.9392330085   -0.1206444883
C        0.8401421052   -0.4037175016    0.5211320918
C        2.9563319513   -1.5452203119    0.6313391226
C        0.7468491440   -0.4782185977    1.9099012667
C        2.8896277786   -1.6356760368    2.0395685775
C        1.7523652063   -1.0857150915    2.6891941157
C        4.0006950205   -2.2926900077    2.7421174567
C        1.5537875320   -1.1137778769    4.1875481885
N        5.1070260581   -2.8291798320    2.1268051935
N        4.1128394592   -2.4722962588    4.0784265762
N        5.8625827175   -3.3241650236    3.1428342381
N        5.2891792830   -3.1184631036    4.2699205897
H        2.0350237254   -0.8885810085   -1.1993628370
H        0.0529171572    0.0687600610   -0.0539594227
H        3.8146616299   -1.9578526928    0.1138336926
H       -0.1260301319   -0.0545757347    2.3913615663
H        1.5254246377   -2.1473208726    4.5457406058
H        2.3655834359   -0.5758839306    4.6865213989
H        0.6119185469   -0.6355342478    4.4700804250
19   

C        1.9500442050   -0.9552484045   -0.1318241316
C        0.8377198477   -0.4221434633    0.5072283152
C        2.9601096869   -1.5529886242    0.6234070537
C        0.7463990301   -0.4852965530    1.8970289266
C        2.8879203361   -1.6436113369    2.0305377487
C        1.7547527206   -1.0844898192    2.6784273693
C        4.0035603975   -2.2841938382    2.7410324163
C        1.5830013976   -1.0704096997    4.1800123494
N        5.2058215292   -2.6225439276    2.1672411820
N        4.0017280163   -2.6898776219    4.0314136977
N        5.9102288902   -3.2154367885    3.1676720553
N        5.2157139225   -3.2549347112    4.2439063083
H        2.0363728670   -0.9088124628   -1.2106974111
H        0.0485153702    0.0437161554   -0.0705386691
H        3.8221498588   -1.9647700441    0.1112705715
H       -0.1242054430   -0.0562724774    2.3778521422
H        1.4524378395   -2.0905551211    4.5535374956
H        2.4570968742   -0.6170188136    4.6573347325
H        0.7043636637   -0.4880245155    4.4707417221
19   

C        1.9267683518   -0.9663514190   -0.1099541536
C        0.8216958088   -0.4231443265    0.5359271015
C        2.9401793292   -1.5661202489    0.6401512670
C        0.7421157146   -0.4744381953    1.9277392054
C        2.8717613131   -1.6541421603    2.0457227526
C        1.7538471665   -1.0763453883    2.7011190506
C        3.9940132613   -2.2776808864    2.7619233294
C        1.6218082664   -1.0422369076    4.2056898373
N        5.2610482080   -2.4270530121    2.2533751964
N        3.9187161950   -2.8978611801    3.9607069138
N        5.9346686251   -3.1145124589    3.2140808215
N        5.1606980597   -3.3870239637    4.1991711099
H        2.0050965372   -0.9246906551   -1.1896216495
H        0.0307917326    0.0443037934   -0.0382075959
H        3.8008193966   -1.9841963245    0.1304741888
H       -0.1182774376   -0.0334663477    2.4160738161
H        1.4251063529   -2.0485514795    4.5875783867
H        2.5413373793   -0.6589299960    4.6587063061
H        0.7985292444   -0.3914885985    4.5131099524
19   

C        1.9257511335   -0.9706602005   -0.1155333539
C        0.8260387687   -0.4141659287    0.5314805810
C        2.9354326961   -1.5780861967    0.6345657645
C        0.7483761190   -0.4574225044    1.9246700597
C        2.8608232298   -1.6648955661    2.0374840594
C        1.7560233698   -1.0682433815    2.6948031379
C        3.9825596008   -2.2750299477    2.7698264874
C        1.6480028602   -1.0357348573    4.2005864794
N        5.2947283366   -2.2375340963    2.3708477812
N        3.8556228128   -3.0999417212    3.8315526837
N        5.9433225108   -3.0175684304    3.2769968833
N        5.1139430052   -3.5161059085    4.1190766498
H        2.0030330817   -0.9315659350   -1.1953572459
H        0.0388849569    0.0590154998   -0.0430967845
H        3.7976323128   -2.0033332004    0.1333458180
H       -0.1044055094   -0.0046888467    2.4155613395
H        1.4220171052   -2.0366502029    4.5803954973
H        2.5895767107   -0.6931405585    4.6410239423
H        0.8545072177   -0.3554234820    4.5220843293
19   

C        1.9249535466   -0.9811737648   -0.1156232010
C        0.8368349578   -0.4010821956    0.5331852665
C        2.9276621859   -1.6017705389    0.6340567635
C        0.7633908530   -0.4331473412    1.9278017797
C        2.8512657270   -1.6791376454    2.0352382057
C        1.7644236525   -1.0571433436    2.6948285437
C        3.9675159454   -2.2887608050    2.7842942818
C        1.6750248751   -1.0325653449    4.2012700387
N        5.2973941714   -2.0661717814    2.5388303166
N        3.8267416922   -3.2988994247    3.6668802680
N        5.9371211492   -2.9321926669    3.3705066634
N        5.0899170429   -3.6443683265    4.0201077153
H        1.9986539547   -0.9488715247   -1.1959077354
H        0.0557490956    0.0819826141   -0.0414392081
H        3.7853884421   -2.0429409832    0.1390716502
H       -0.0787916611    0.0368389134    2.4207341651
H        1.4862220394   -2.0415375734    4.5801535199
H        2.6136360819   -0.6662504329    4.6288754677
H        0.8656280606   -0.3776802291    4.5356762955
19   

C        1.8985489051   -1.0053475985   -0.1274296205
C        0.8304449652   -0.4041911451    0.5377529795
C        2.9067373789   -1.6348807074    0.6080712111
C        0.7801585286   -0.4259756741    1.9344360858
C        2.8533038840   -1.6931356259    2.0094025463
C        1.7874170653   -1.0575900166    2.6861989474
C        3.9635459484   -2.3212377786    2.7613959464
C        1.7273675634   -1.0446237425    4.1936957243
N        5.2661649097   -1.8998812882    2.7552126149
N        3.8569347220   -3.4949659592    3.4128803299
N        5.9177285529   -2.8415599866    3.4902555174
N        5.1065893822   -3.7622414319    3.8680736126
H        1.9513956862   -0.9830021363   -1.2091762963
H        0.0456231713    0.0852279692   -0.0263046742
H        3.7492219132   -2.0952497864    0.1049133085
H       -0.0478668538    0.0559730067    2.4396215352
H        1.6243315539   -2.0663788966    4.5717973108
H        2.6463972285   -0.6117443746    4.6012049001
H        0.8781260492   -0.4538929447    4.5481569950
19   

C        1.8482956180   -1.0719454536   -0.1390929914
C        0.8046209803   -0.4376997593    0.5354729458
C        2.8740845746   -1.6826081642    0.5883555868
C        0.7898332096   -0.4160540134    1.9334922548
C        2.8707783298   -1.6678791825    1.9909939390
C        1.8153108104   -1.0264682970    2.6776962954
C        3.9666648118   -2.3211818288    2.7465600194
C        1.7843947456   -0.9938928718    4.1856395697
N        5.1320238923   -1.7239373858    3.1441660964
N        3.9413501959   -3.6094885617    3.1355332295
N        5.7989275443   -2.7158033171    3.7949345370
N        5.1142692749   -3.8024044887    3.7895874867
H        1.8660306670   -1.0928421059   -1.2220111462
H        0.0068001561    0.0371474779   -0.0227805533
H        3.6910236306   -2.1795291758    0.0784182173
H       -0.0260645364    0.0795298775    2.4451719757
H        1.7628059626   -2.0144815286    4.5805286322
H        2.6792057068   -0.4915172842    4.5663328305
H        0.9022952972   -0.4598614234    4.5496055628
19   

C        1.7998680885   -1.1354305511   -0.1340832579
C        0.7753591054   -0.4723796352    0.5408627455
C        2.8390900008   -1.7250238429    0.5912035926
C        0.7883854996   -0.4103152531    1.9372737203
C        2.8822410815   -1.6431000673    1.9916497692
C        1.8291141332   -0.9971011061    2.6798095479
C        3.9681802901   -2.3195676378    2.7367815640
C        1.8031837133   -0.9453824355    4.1877529411
N        4.9253197517   -1.7036101382    3.4993045142
N        4.0708075598   -3.6576991052    2.8548130915
N        5.6271042954   -2.7354703423    4.0414541623
N        5.1352360711   -3.8618211200    3.6707529979
H        1.7903733777   -1.1986233792   -1.2154650048
H       -0.0334284905   -0.0137782218   -0.0151875556
H        3.6340540612   -2.2551130814    0.0798467176
H       -0.0206928283    0.0952636249    2.4500189508
H        1.8952458187   -1.9554148598    4.5996435752
H        2.6380704068   -0.3406716646    4.5546903852
H        0.8688460141   -0.5076544245    4.5498744891
19   

C        1.7843766965   -1.1565707860   -0.1248341968
C        0.7687502877   -0.4754266427    0.5429266398
C        2.8235159193   -1.7387382686    0.6056588173
C        0.7899885474   -0.3918626333    1.9372588158
C        2.8835714748   -1.6292174262    2.0052937515
C        1.8315385312   -0.9706701225    2.6858215172
C        3.9687841710   -2.3149232206    2.7343806191
C        1.7909655641   -0.9030096741    4.1932084652
N        4.7587654362   -1.7766504234    3.7179703310
N        4.2317044670   -3.6320631096    2.6076443522
N        5.5306028975   -2.8171793698    4.1323904696
N        5.2269768636   -3.8873861868    3.4931486534
H        1.7679609159   -1.2411485707   -1.2046795364
H       -0.0409054910   -0.0223408305   -0.0163759491
H        3.6089671605   -2.2855510275    0.0967241559
H       -0.0160222219    0.1235157239    2.4450867275
H        1.9446162499   -1.8991408717    4.6202735520
H        2.5793591608   -0.2379443025    4.5582060728
H        0.8263665569   -0.5249787826    4.5430621749
19   

C        1.7832345344   -1.1668187731   -0.1147287632
C        0.7765758658   -0.4662268131    0.5436490257
C        2.8125355394   -1.7555879669    0.6233903053
C        0.7980289568   -0.3696962401    1.9362191063
C        2.8746337864   -1.6393703907    2.0247449221
C        1.8294205531   -0.9554532675    2.6944537541
C        3.9599924878   -2.3277345958    2.7434725150
C        1.7715532888   -0.8673696015    4.2005463163
N        4.6135065699   -1.9040026403    3.8739234489
N        4.3910727088   -3.5643991358    2.4127319845
N        5.4681407347   -2.9189673799    4.1717379040
N        5.3400221589   -3.8774421650    3.3296358670
H        1.7687238858   -1.2609857433   -1.1938216439
H       -0.0259226388   -0.0075074888   -0.0213504568
H        3.5909117248   -2.3130606976    0.1147644608
H       -0.0020943631    0.1623294516    2.4361463732
H        1.9125921757   -1.8583428780    4.6433920568
H        2.5572488727   -0.1995108599    4.5662660762
H        0.8046492176   -0.4804782726    4.5340189891
19   

C        1.7785020264   -1.1771547558   -0.1110341131
C        0.7819362911   -0.4594898636    0.5411100162
C        2.7985473045   -1.7755157049    0.6313539670
C        0.8066714423   -0.3529242223    1.9317603004
C        2.8618877488   -1.6617753798    2.0359765664
C        1.8281938520   -0.9488275322    2.6964931493
C        3.9514987207   -2.3480409588    2.7456013570
C        1.7632890156   -0.8326872667    4.2007385042
N        4.4804671603   -2.0574361336    3.9796582071
N        4.5575342931   -3.4537549456    2.2563246309
N        5.4268474249   -3.0119453491    4.1831728082
N        5.4716528729   -3.8187930387    3.1887910481
H        1.7652075373   -1.2759564334   -1.1897454949
H       -0.0135744519    0.0072541086   -0.0271983176
H        3.5686234384   -2.3381724967    0.1159224941
H        0.0153314814    0.1973754707    2.4258616752
H        1.8483140033   -1.8220748246    4.6607484737
H        2.5771390174   -0.1973313227    4.5628673660
H        0.8148389671   -0.3921737797    4.5204041856
19   

C        1.7718884812   -1.2070827835   -0.1185803400
C        0.7852852063   -0.4703196982    0.5245310265
C        2.7834150422   -1.8111112297    0.6302206734
C        0.8143008507   -0.3469967624    1.9126629331
C        2.8473026993   -1.6936119805    2.0374209285
C        1.8268858853   -0.9486340175    2.6856255524
C        3.9413727971   -2.3720542649    2.7462663155
C        1.7653718800   -0.7895764538    4.1864119054
N        4.3448502474   -2.2274469609    4.0521395736
N        4.7209919248   -3.3071917447    2.1543707971
N        5.3821138511   -3.0935134642    4.1973422187
N        5.5999443809   -3.7180942527    3.1010280380
H        1.7591706585   -1.3151745882   -1.1964225430
H       -0.0035057846    0.0015629478   -0.0488866582
H        3.5437763996   -2.3819617692    0.1098263383
H        0.0330116720    0.2244483632    2.3986906648
H        1.7703501087   -1.7707075893    4.6709971660
H        2.6229100781   -0.2080154745    4.5380426426
H        0.8529712282   -0.2691342531    4.4904577341
19   

C        1.7689987005   -1.2234307803   -0.1251558921
C        0.7811860083   -0.4865520997    0.5147006900
C        2.7815443457   -1.8227658425    0.6257995550
C        0.8131247613   -0.3543171049    1.9014725157
C        2.8426805552   -1.7077621576    2.0346118930
C        1.8264778898   -0.9514359991    2.6772974018
C        3.9456562309   -2.3727523235    2.7424947441
C        1.7803595565   -0.7543764563    4.1742557983
N        4.2170620175   -2.4062462488    4.0896774726
N        4.8977458642   -3.0862967864    2.0958680308
N        5.3456865324   -3.1542549789    4.2048856406
N        5.7398670164   -3.5478299893    3.0524420308
H        1.7570990178   -1.3348776882   -1.2026720294
H       -0.0083665439   -0.0180487821   -0.0604434582
H        3.5406474708   -2.3925074342    0.1026119845
H        0.0347196404    0.2239454900    2.3840471863
H        1.6934639184   -1.7212391466    4.6791674835
H        2.6876105753   -0.2468284112    4.5157204135
H        0.9217223281   -0.1431189627    4.4655770577
