65

C     -1.53214  -10.46338   -1.02878
C     -1.72661   -9.08741   -1.19106
C     -1.11946  -10.96590    0.21059
C     -1.51495   -8.21837   -0.11757
C     -0.89896  -10.09764    1.28201
C     -2.73236   -8.34914    5.52547
C     -3.44279   -9.20645    3.37423
C     -3.77508   -9.03138    6.14301
C     -4.48861   -9.88636    3.99432
C      1.93485   -5.50286    1.54996
C      1.05037   -6.49854    1.27648
C     -2.54279   -8.42845    4.12970
C     -1.10139   -8.71481    1.13137
C     -4.66540   -9.81029    5.38495
C     -1.43232   -7.68116    3.53351
C     -0.87078   -7.80236    2.26382
C      1.85158   -4.85700    2.83401
C      0.11583   -6.17407    3.48750
C      4.52143   -1.34996    2.06674
C      4.01978   -0.24975    1.13450
C      3.20623    0.68309    2.04561
C     -6.69052  -12.23062    7.00621
C     -5.74591  -11.08317    7.46564
C     -6.42819  -11.81054    5.53137
C      2.76487   -0.23221    3.20622
C     -5.83432  -10.47094    6.04193
C      3.91959   -2.23716    4.29249
C      2.75522   -3.22045    4.31496
N     -0.81754   -6.68693    4.27048
N      0.98433   -5.17670    3.76610
N      0.12171   -6.82750    2.23352
N      3.81707   -1.24299    3.24651
N     -6.98272   -9.40986    6.05009
O      5.37989   -2.18947    1.82400
O      2.74805   -3.88371    3.03234
H     -1.69524  -11.13871   -1.86413
H     -2.04737   -8.69181   -2.15088
H     -0.95520  -12.03253    0.33796
H     -1.68742   -7.15184   -0.24042
H     -0.56466  -10.48394    2.24106
H     -2.04281   -7.74360    6.10362
H     -3.33078   -9.27634    2.29872
H     -3.88277   -8.97201    7.22482
H     -5.16163  -10.48921    3.38747
H      2.69535   -5.20145    0.84006
H      1.03048   -7.06072    0.34993
H      4.85801    0.23102    0.62717
H      3.39758   -0.72391    0.36638
H      3.84783    1.47890    2.43454
H      2.35500    1.15043    1.54564
H     -7.72955  -12.08723    7.31868
H     -6.39248  -13.24243    7.28163
H     -6.05510  -10.45969    8.31059
H     -4.72852  -11.43145    7.65043
H     -5.64072  -12.40493    5.06537
H     -7.27808  -11.76400    4.84297
H      2.69975    0.29778    4.16275
H      1.78398   -0.68885    3.00687
H      3.97105   -1.74588    5.27243
H      4.85415   -2.77811    4.12674
H      1.79002   -2.72820    4.46700
H      2.88605   -3.96017    5.11017
H     -7.84807   -9.75257    6.48754
H     -7.19421   -9.12252    5.08666
H     -6.67167   -8.56995    6.55367
