19   

C        1.7384419492   -1.2550413375   -0.1122797090
C        0.7594317340   -0.5075775150    0.5303299513
C        2.7566132441   -1.8501374033    0.6347322483
C        0.8073010266   -0.3576060840    1.9153937901
C        2.8280617124   -1.7222434619    2.0404848157
C        1.8262642399   -0.9506732063    2.6864757229
C        3.9374114945   -2.3782579180    2.7466363214
C        1.8205881599   -0.7129792612    4.1780480200
N        4.0768571221   -2.6267519420    4.0910981803
N        5.0301618460   -2.8515689983    2.1031537344
N        5.2770297838   -3.2535563318    4.2090870221
N        5.8283601043   -3.3841371728    3.0607114985
H        1.7153431122   -1.3773120931   -1.1884326338
H       -0.0339060744   -0.0418626692   -0.0418556561
H        3.5107555720   -2.4302256233    0.1154791188
H        0.0396935946    0.2333955701    2.3998319472
H        1.6340957180   -1.6524087877    4.7071424601
H        2.7825629518   -0.3020116295    4.4992559156
H        1.0397015064   -0.0015163337    4.4605779008
19   

C        1.7129375194   -1.2940504007   -0.1207867004
C        0.7450747974   -0.5273952410    0.5192876240
C        2.7303750304   -1.8896768962    0.6275689468
C        0.8041279271   -0.3562382819    1.9025892004
C        2.8048605819   -1.7452875433    2.0284876693
C        1.8220583411   -0.9504426122    2.6730367226
C        3.9194818294   -2.3869559898    2.7407815494
C        1.8515888656   -0.6869226454    4.1595308147
N        3.9559085806   -2.8265543381    4.0413762493
N        5.1183903895   -2.6198858990    2.1598426355
N        5.2106010723   -3.3260490127    4.1994006321
N        5.8819064859   -3.2075950306    3.1139400525
H        1.6822554279   -1.4285951378   -1.1952684348
H       -0.0467379316   -0.0606988479   -0.0541979134
H        3.4837829367   -2.4827233171    0.1216209913
H        0.0492486290    0.2523802683    2.3852103093
H        1.5998733573   -1.6006484385    4.7063001944
H        2.8469646447   -0.3497438769    4.4649110239
H        1.1321413312    0.0891075192    4.4351947597
19   

C        1.7018343362   -1.3117164757   -0.1259327276
C        0.7477903600   -0.5265567067    0.5158738272
C        2.7149296267   -1.9180840231    0.6206142971
C        0.8167249234   -0.3454998276    1.8986290608
C        2.7904109276   -1.7678567995    2.0176848014
C        1.8298562457   -0.9513841609    2.6651502867
C        3.9059646115   -2.4037067755    2.7384499902
C        1.8880640173   -0.6855885020    4.1499699620
N        3.8595510145   -3.0319565582    3.9574609266
N        5.1751592333   -2.4030973753    2.2762030273
N        5.1448365903   -3.4126226872    4.1879985214
N        5.9038012671   -3.0508678119    3.2191041994
H        1.6642328706   -1.4500068528   -1.1997019678
H       -0.0398454140   -0.0514254260   -0.0564299783
H        3.4660188768   -2.5214531947    0.1234471976
H        0.0758343255    0.2788181831    2.3828577743
H        1.6063230802   -1.5875489412    4.7015675430
H        2.9012673908   -0.3930998317    4.4430189795
H        1.2053195206    0.1210848777    4.4309542660
19   

C        2.0351236427   -0.7401681563   -0.1290701576
C        0.8618365221   -0.3414554528    0.5086925937
C        3.0419896272   -1.3722510430    0.6053525446
C        0.7042672461   -0.5687559193    1.8782660107
C        2.8906584990   -1.6312339081    1.9777833104
C        1.7084956498   -1.2058518280    2.6301188222
C        4.0016554027   -2.2597225452    2.7199436545
C        1.5218274089   -1.3995210195    4.1151247127
N        3.9284516644   -3.3778794796    3.5095858099
N        5.2484913278   -1.7466455279    2.7605333720
N        5.1890850370   -3.5175140061    4.0017986861
N        5.9503453448   -2.5783840572    3.5703876911
H        2.1711256201   -0.5573961166   -1.1881220415
H        0.0778405629    0.1508061136   -0.0540453341
H        3.9642011604   -1.6737418024    0.1220344098
H       -0.2069292247   -0.2420388493    2.3641817969
H        1.4039636620   -2.4637368929    4.3403836210
H        2.3936059761   -1.0199540555    4.6574389036
H        0.6355658444   -0.8675134784    4.4718894807
19   

C        2.0221876078   -0.7555440364   -0.1439809506
C        0.8571550050   -0.3442240911    0.5031948990
C        3.0361781131   -1.3821494061    0.5861167969
C        0.7126172983   -0.5554260840    1.8775284811
C        2.8974648847   -1.6165616502    1.9627401206
C        1.7241320840   -1.1859711032    2.6243539574
C        4.0014419009   -2.2501989891    2.7188404210
C        1.5569966108   -1.3824692100    4.1109952165
N        3.9850476378   -3.5049568775    3.2674381429
N        5.1577401764   -1.6256035124    3.0155042546
N        5.1913642065   -3.6052152775    3.8890184260
N        5.8677261120   -2.5234304756    3.7438177236
H        2.1449955300   -0.5878197123   -1.2071170839
H        0.0681204647    0.1430900068   -0.0568004786
H        3.9509610375   -1.6973028511    0.0979202425
H       -0.1932803097   -0.2234066143    2.3696999169
H        1.5105352823   -2.4509611426    4.3426969895
H        2.4068702886   -0.9457204239    4.6450094582
H        0.6400936095   -0.9066698096    4.4696800323
19   

C        2.0190236119   -0.7821085919   -0.1503747072
C        0.8616004505   -0.3513085328    0.4987480304
C        3.0362864675   -1.3995793841    0.5832681809
C        0.7250747438   -0.5389364692    1.8776324001
C        2.9114550334   -1.5936233301    1.9668733952
C        1.7406401997   -1.1585090924    2.6278390218
C        4.0006464738   -2.2497473894    2.7296371082
C        1.5774294669   -1.3534899341    4.1148718733
N        4.1205631865   -3.5935134746    2.9593414760
N        5.0230584174   -1.5822189202    3.2959847654
N        5.2605922156   -3.6960030822    3.6954743101
N        5.7815365632   -2.5381362621    3.8890091814
H        2.1316802687   -0.6397119877   -1.2183143578
H        0.0699054179    0.1279791077   -0.0644092196
H        3.9412335653   -1.7389558718    0.0931157149
H       -0.1783066338   -0.1998976570    2.3696316289
H        1.6283280114   -2.4191860331    4.3592032015
H        2.3792070565   -0.8344592885    4.6494399529
H        0.6167329275   -0.9613986722    4.4599611148
19   

C        2.0163713254   -0.8108401277   -0.1449796170
C        0.8673359556   -0.3530579786    0.4994143712
C        3.0318690174   -1.4191449066    0.5983519192
C        0.7356728222   -0.5102953665    1.8821654327
C        2.9214957066   -1.5676318704    1.9894390053
C        1.7504629420   -1.1195608555    2.6421232130
C        3.9981609506   -2.2489430616    2.7439291312
C        1.5785551000   -1.2985964528    4.1302988794
N        4.3251693631   -3.5743982755    2.6467154186
N        4.8598830434   -1.6116876866    3.5592653039
N        5.3993441541   -3.7055194941    3.4719407841
N        5.7085473568   -2.5752188106    3.9973242845
H        2.1227910331   -0.6998198047   -1.2172763347
H        0.0763303509    0.1186889960   -0.0710280005
H        3.9260883064   -1.7881769337    0.1095597039
H       -0.1651281427   -0.1578919315    2.3694874656
H        1.6973147735   -2.3535358204    4.3968843708
H        2.3342942078   -0.7155601666    4.6655918938
H        0.5879851596   -0.9674688846    4.4542087798
19   

C        2.0175069878   -0.8413084213   -0.1367630350
C        0.8753797757   -0.3520774432    0.4944407420
C        3.0183261422   -1.4550978853    0.6210968679
C        0.7357359923   -0.4860024327    1.8781323215
C        2.9062723215   -1.5765858363    2.0161713816
C        1.7362815276   -1.0996010505    2.6540212287
C        3.9688229597   -2.2750414679    2.7657164490
C        1.5354310198   -1.2620492332    4.1409850565
N        4.4900016878   -3.5007435923    2.4457733658
N        4.6573535591   -1.7310448502    3.7899223344
N        5.4855353052   -3.6818648712    3.3555809622
N        5.5829152198   -2.6625651770    4.1300399123
H        2.1299119960   -0.7518101628   -1.2104690447
H        0.0948997193    0.1237923581   -0.0869727635
H        3.9051183662   -1.8501789199    0.1386842519
H       -0.1623680976   -0.1125175542    2.3546381180
H        1.7153042312   -2.3009543657    4.4348352780
H        2.2334897085   -0.6175771720    4.6837941363
H        0.5158020465   -0.9934343915    4.4308160842
19   

C        2.0025709486   -0.8660267318   -0.1323673697
C        0.8738741888   -0.3555363088    0.5031942804
C        3.0008121461   -1.4860356830    0.6228235379
C        0.7458313630   -0.4750244026    1.8884451424
C        2.9027742339   -1.5971760763    2.0219132325
C        1.7436361935   -1.0946941457    2.6641849726
C        3.9744814546   -2.2924191061    2.7533898635
C        1.5306939038   -1.2423377586    4.1517186711
N        4.6643416186   -3.3832874709    2.2900901462
N        4.5039126765   -1.8806023832    3.9255309946
N        5.5928173000   -3.6244050370    3.2548026560
N        5.5011104783   -2.7587271235    4.1976010718
H        2.1076826019   -0.7874997147   -1.2076822693
H        0.0947198419    0.1255825466   -0.0756794023
H        3.8774690213   -1.8923318637    0.1310531777
H       -0.1438375587   -0.0850982801    2.3676372402
H        1.7380365084   -2.2704814635    4.4645307341
H        2.1985289183   -0.5655265085    4.6931172015
H        0.4990736633   -1.0043589162    4.4254464968
19   

C        1.9927541534   -0.8803941705   -0.1334588026
C        0.8745741367   -0.3541665716    0.5043404651
C        2.9882869119   -1.5052167829    0.6201945941
C        0.7558317452   -0.4622173082    1.8902885028
C        2.8998683855   -1.6129742853    2.0227449082
C        1.7500598044   -1.0878931681    2.6673893615
C        3.9847233421   -2.2993167802    2.7395063757
C        1.5247642315   -1.2126899199    4.1559626606
N        4.8246099602   -3.2320817767    2.1830944990
N        4.3631397251   -2.0580804643    4.0145574999
N        5.6888220799   -3.5494277931    3.1842029025
N        5.4233102027   -2.8728043815    4.2407263195
H        2.0933520038   -0.8090224985   -1.2097183884
H        0.0969189477    0.1315021526   -0.0727598002
H        3.8569668476   -1.9160041537    0.1182234833
H       -0.1268625294   -0.0574013173    2.3700609474
H        1.6891398885   -2.2450850135    4.4797200229
H        2.2115207303   -0.5532808272    4.6951988170
H        0.5012944145   -0.9350585489    4.4227857791
19   

C        1.9751746930   -0.9092803051   -0.1273219456
C        0.8636844266   -0.3743236208    0.5117936300
C        2.9736800511   -1.5284506001    0.6260393683
C        0.7566937505   -0.4661702146    1.8989347589
C        2.8958956685   -1.6285105727    2.0320643820
C        1.7533187832   -1.0870386955    2.6784127058
C        3.9953571539   -2.2994207211    2.7397823891
C        1.5301765615   -1.1696102942    4.1709820839
N        4.9751440950   -3.0481038383    2.1329050249
N        4.2340750000   -2.2555283306    4.0704810047
N        5.7819486681   -3.4490449438    3.1512460856
N        5.3548317615   -2.9920370857    4.2697954583
H        2.0695463070   -0.8480694156   -1.2047828911
H        0.0833290258    0.1079012108   -0.0645637495
H        3.8359975216   -1.9406250515    0.1146513786
H       -0.1205828628   -0.0495328485    2.3785227157
H        1.6103581733   -2.2070787276    4.5096076648
H        2.2692228666   -0.5571747036    4.6963502753
H        0.5349258397   -0.8061576521    4.4413100501
19   

C        1.9490654136   -0.9392299475   -0.1206442070
C        0.8401433471   -0.4037151794    0.5211323109
C        2.9563331191   -1.5452181319    0.6313393191
C        0.7468496447   -0.4782176550    1.9099013597
C        2.8896277786   -1.6356760368    2.0395685775
C        1.7523652063   -1.0857150915    2.6891941157
C        4.0006950205   -2.2926900077    2.7421174567
C        1.5537867843   -1.1137792751    4.1875480624
N        5.1070252474   -2.8291813340    2.1268050455
N        4.1128394592   -2.4722962588    4.0784265762
N        5.8625817485   -3.3241668359    3.1428340536
N        5.2891787745   -3.1184640669    4.2699204867
H        2.0350260394   -0.8885766919   -1.1993624412
H        0.0529187236    0.0687629920   -0.0539591451
H        3.8146631948   -1.9578497634    0.1138339470
H       -0.1260298078   -0.0545751214    2.3913616336
H        1.5254242442   -2.1473225859    4.5457395914
H        2.3655821552   -0.5758853304    4.6865221386
H        0.6119174074   -0.6355363830    4.4700802366
19   

C        1.9397291456   -0.9759629295   -0.1335139223
C        0.8298278897   -0.4379793692    0.5058232768
C        2.9529088900   -1.5676193262    0.6223610940
C        0.7431597862   -0.4916918904    1.8963802784
C        2.8879203361   -1.6436113369    2.0305377487
C        1.7547527206   -1.0844898192    2.6784273693
C        4.0035603975   -2.2841938382    2.7410324163
C        1.5877686979   -1.0618279959    4.1804203773
N        5.2141962868   -2.6012214697    2.1730064257
N        4.0017280163   -2.6898776219    4.0314136977
N        5.9202590672   -3.1903402709    3.1745676648
N        5.2211477602   -3.2418017857    4.2474333653
H        2.0217086703   -0.9380214484   -1.2130575076
H        0.0384617109    0.0236016284   -0.0724206723
H        3.8127860319   -1.9844142519    0.1106087389
H       -0.1263947771   -0.0605667601    2.3772249598
H        1.4549221150   -2.0795936936    4.5596094627
H        2.4648991342   -0.6090686956    4.6527414987
H        0.7120151093   -0.4748979868    4.4707098596
19   

C        1.9090916773   -1.0029486593   -0.1125711553
C        0.8082648971   -0.4509582483    0.5335650739
C        2.9278875278   -1.5921168130    0.6387086684
C        0.7366044442   -0.4855531385    1.9265008260
C        2.8717613131   -1.6541421603    2.0457227526
C        1.7538471665   -1.0763453883    2.7011190506
C        3.9940132613   -2.2776808864    2.7619233294
C        1.6297404856   -1.0282859472    4.2059243039
N        5.2713319723   -2.3887778728    2.2706952428
N        3.9187161950   -2.8978611801    3.9607069138
N        5.9471557555   -3.0694217505    3.2349154008
N        5.1677585603   -3.3633120231    4.2099156251
H        1.9798372249   -0.9761959866   -1.1932317104
H        0.0136625293    0.0090274592   -0.0414898290
H        3.7852116430   -2.0187878775    0.1305042857
H       -0.1220248456   -0.0408616829    2.4145678899
H        1.4306186707   -2.0304230770    4.5974562433
H        2.5533200912   -0.6454588298    4.6510358742
H        0.8108683745   -0.3711963543    4.5116078624
19   

C        1.9022675107   -1.0184999194   -0.1187446463
C        0.8082540775   -0.4504655447    0.5285269348
C        2.9191408482   -1.6121580312    0.6327588237
C        0.7410877275   -0.4719042010    1.9230179066
C        2.8608232298   -1.6648955661    2.0374840594
C        1.7560233698   -1.0682433815    2.6948031379
C        3.9825596008   -2.2750299477    2.7698264874
C        1.6579629630   -1.0183132204    4.2007196775
N        5.3014610102   -2.1880987369    2.4044585118
N        3.8556228128   -3.0999417212    3.8315526837
N        5.9514449542   -2.9592033270    3.3175824314
N        5.1188726619   -3.4851778304    4.1402928504
H        1.9693740593   -0.9988423397   -1.1997749365
H        0.0161696688    0.0129693283   -0.0472186358
H        3.7768489256   -2.0482496099    0.1331558837
H       -0.1094296466   -0.0143703572    2.4133869937
H        1.4310306445   -2.0142337945    4.5929389329
H        2.6036227687   -0.6745665861    4.6314017426
H        0.8688372492   -0.3316779477    4.5194904285
19   

C        1.8963104067   -1.0356748492   -0.1187592634
C        0.8151778999   -0.4424169394    0.5304090618
C        2.9077493918   -1.6406420135    0.6320697844
C        0.7545543402   -0.4496902704    1.9262252895
C        2.8512657270   -1.6791376454    2.0352382057
C        1.7644236525   -1.0571433436    2.6948285437
C        3.9675159454   -2.2887608050    2.7842942818
C        1.6866159264   -1.0128058195    4.2014027184
N        5.2953449438   -2.0127009368    2.5919295008
N        3.8267416922   -3.2988994247    3.6668802680
N        5.9342250062   -2.8689925427    3.4346872532
N        5.0888838809   -3.6106657568    4.0540052965
H        1.9575471521   -1.0256276580   -1.2002574019
H        0.0280649056    0.0294996879   -0.0452563730
H        3.7592571173   -2.0941920749    0.1376632734
H       -0.0849052929    0.0256796485    2.4186398001
H        1.4991718169   -2.0166340029    4.5944255105
H        2.6291041016   -0.6429675551    4.6172955186
H        0.8807202838   -0.3523976516    4.5333579505
19   

C        1.8704605946   -1.0546425160   -0.1293045950
C        0.8092872542   -0.4414293523    0.5362563505
C        2.8870049180   -1.6701147832    0.6066597234
C        0.7716086923   -0.4409003691    1.9336252054
C        2.8533038840   -1.6931356259    2.0094025463
C        1.7874170653   -1.0575900166    2.6861989474
C        3.9635459484   -2.3212377786    2.7613959464
C        1.7382438733   -1.0266826173    4.1938129545
N        5.2507584364   -1.8596219261    2.8180609875
N        3.8569347220   -3.4949659592    3.4128803299
N        5.8984916087   -2.7939877384    3.5660208292
N        5.0965192748   -3.7367921782    3.9083288692
H        1.9111252355   -1.0527084388   -1.2118078806
H        0.0186042078    0.0379109473   -0.0282726771
H        3.7225636844   -2.1421927702    0.1029588444
H       -0.0537101608    0.0458542945    2.4386319940
H        1.6372745820   -2.0439779248    4.5843598230
H        2.6605353740   -0.5900797048    4.5898237276
H        0.8918992700   -0.4312886447    4.5473645378
19   

C        1.8482178351   -1.0720760166   -0.1390923833
C        0.8045628478   -0.4377976885    0.5354729280
C        2.8740286133   -1.6827019250    0.5883561840
C        0.7898098214   -0.4160937873    1.9334916516
C        2.8707783298   -1.6678791825    1.9909939390
C        1.8153108104   -1.0264682970    2.6776962954
C        3.9666648118   -2.3211818288    2.7465600194
C        1.7844162755   -0.9938501234    4.1856395758
N        5.1318352344   -1.7238200261    3.1445448587
N        3.9413501959   -3.6094885617    3.1355332295
N        5.7986987290   -2.7156630400    3.7953891557
N        5.1141467090   -3.8023299779    3.7898292910
H        1.8659193540   -1.0930276739   -1.2220100268
H        0.0067259528    0.0370229971   -0.0227801905
H        3.6909461609   -2.1796559825    0.0784171315
H       -0.0260809401    0.0795017810    2.4451712021
H        1.7628741878   -2.0144282175    4.5805587207
H        2.6792124990   -0.4914282454    4.5663059156
H        0.9023006453   -0.4598442892    4.5496036811
19   

C        1.8273474968   -1.0902458827   -0.1360750742
C        0.7957997841   -0.4386858609    0.5397304823
C        2.8592003928   -1.6925847557    0.5894060662
C        0.7965116944   -0.3966444959    1.9370608230
C        2.8822410815   -1.6431000673    1.9916497692
C        1.8291141332   -0.9971011061    2.6798095479
C        3.9681802901   -2.3195676378    2.7367815640
C        1.7974202265   -0.9600216813    4.1878764736
N        4.9622058033   -1.7022724466    3.4484600306
N        4.0708075598   -3.6576991052    2.8548130915
N        5.6715667169   -2.7342688834    3.9808247302
N        5.1592158269   -3.8609274048    3.6388321807
H        1.8292913954   -1.1342042638   -1.2184500179
H       -0.0074482536    0.0290428945   -0.0167474313
H        3.6613444525   -2.2111800385    0.0774406950
H       -0.0149401575    0.1049330310    2.4499798544
H        1.8703196792   -1.9756076890    4.5897199001
H        2.6416416187   -0.3740588248    4.5639837709
H        0.8695630194   -0.5090888585    4.5504949843
19   

C        1.8159270211   -1.1052479871   -0.1279673280
C        0.7917548601   -0.4378132596    0.5412708636
C        2.8469706396   -1.7016493439    0.6027870925
C        0.7987715668   -0.3770215731    1.9371161796
C        2.8835714748   -1.6292174262    2.0052937515
C        1.8315385312   -0.9706701225    2.6858215172
C        3.9687841710   -2.3149232206    2.7343806191
C        1.7861101238   -0.9205072055    4.1934921329
N        4.8011306953   -1.7586530216    3.6708811266
N        4.2317044670   -3.6320631096    2.6076443522
N        5.5817075605   -2.7962893917    4.0770244438
N        5.2546200893   -3.8758808492    3.4646251540
H        1.8125783690   -1.1677808156   -1.2094331961
H       -0.0118145483    0.0252291210   -0.0186545669
H        3.6408062968   -2.2352566147    0.0928353479
H       -0.0100887672    0.1333517173    2.4454581361
H        1.9299206930   -1.9228633481    4.6091803198
H        2.5799935797   -0.2675578581    4.5684927871
H        0.8239603744   -0.5372146907    4.5444003122
19   

C        1.8115600394   -1.1220722243   -0.1177542686
C        0.7970170019   -0.4336636380    0.5421012186
C        2.8336650919   -1.7232023138    0.6206990271
C        0.8056140982   -0.3571096743    1.9362439569
C        2.8746337864   -1.6393703907    2.0247449221
C        1.8294205531   -0.9554532675    2.6944537541
C        3.9599924878   -2.3277345958    2.7434725150
C        1.7671404898   -0.8845849994    4.2010434852
N        4.6510348205   -1.8762608205    3.8395696890
N        4.3910727088   -3.5643991358    2.4127319845
N        5.5133503239   -2.8866435063    4.1321142881
N        5.3644302504   -3.8599793217    3.3098409774
H        1.8087924728   -1.1969838354   -1.1984480439
H       -0.0001397943    0.0335443899   -0.0235027947
H        3.6197032411   -2.2692882838    0.1114845402
H        0.0028135653    0.1701043682    2.4369687125
H        1.9144262985   -1.8792314487    4.6334712316
H        2.5484327299   -0.2163690808    4.5755286834
H        0.7970363868   -0.5071048472    4.5360393238
19   

C        1.8008120950   -1.1430731988   -0.1135877863
C        0.7982316677   -0.4343597127    0.5396753557
C        2.8149768888   -1.7510608430    0.6292617970
C        0.8127668594   -0.3431517614    1.9317025099
C        2.8618877488   -1.6617753798    2.0359765664
C        1.8281938520   -0.9488275322    2.6964931493
C        3.9514987207   -2.3480409588    2.7456013570
C        1.7580303642   -0.8482804181    4.2014574158
N        4.5098278131   -2.0275471391    3.9587106995
N        4.5575342931   -3.4537549456    2.2563246309
N        5.4619607818   -2.9772192562    4.1594642897
N        5.4904297550   -3.8003373630    3.1773273528
H        1.7967792742   -1.2272940954   -1.1936086169
H        0.0070286911    0.0389940268   -0.0291776446
H        3.5911287450   -2.3052203309    0.1136990344
H        0.0192397624    0.2032782122    2.4265878761
H        1.8565562548   -1.8405708071    4.6524325065
H        2.5627103347   -0.2056493591    4.5712146085
H        0.8027894878   -0.4238256122    4.5226549318
19   

C        1.7851214524   -1.1874483900   -0.1204028139
C        0.7952334024   -0.4554599137    0.5233215085
C        2.7929168145   -1.7972298409    0.6288528578
C        0.8181686087   -0.3410828211    1.9123846444
C        2.8473026993   -1.6936119805    2.0374209285
C        1.8268858853   -0.9486340175    2.6856255524
C        3.9413727971   -2.3720542649    2.7462663155
C        1.7602337537   -0.7999967618    4.1871971114
N        4.3618243794   -2.2061839341    4.0441019155
N        4.7209919248   -3.3071917447    2.1543707971
N        5.4021292498   -3.0688869091    4.1883441634
N        5.6104840273   -3.7051975127    3.0967460838
H        1.7779143938   -1.2872297087   -1.1990964895
H        0.0091450290    0.0204403073   -0.0504863087
H        3.5567952836   -2.3632137533    0.1082722136
H        0.0355280198    0.2281291712    2.3988588992
H        1.7762109532   -1.7839584188    4.6657651472
H        2.6102794708   -0.2106965375    4.5441243230
H        0.8410157659   -0.2923606040    4.4923728181
19   

C        1.7690019471   -1.2234259658   -0.1251564260
C        0.7811884298   -0.4865485036    0.5147002923
C        2.7815466797   -1.8227623823    0.6257991728
C        0.8131257104   -0.3543156892    1.9014723624
C        2.8426805552   -1.7077621576    2.0346118930
C        1.8264778898   -0.9514359991    2.6772974018
C        3.9456562309   -2.3727523235    2.7424947441
C        1.7803580461   -0.7543787075    4.1742560506
N        4.2170642654   -2.4062429174    4.0896771024
N        4.8977458642   -3.0862967864    2.0958680308
N        5.3456891066   -3.1542511637    4.2048852155
N        5.7398683448   -3.5478280205    3.0524418106
H        1.7571036339   -1.3348708594   -1.2026727851
H       -0.0083634862   -0.0180442447   -0.0604439625
H        3.5406506499   -2.3925027224    0.1026114644
H        0.0347202227    0.2239463604    2.3840470963
H        1.6934642197   -1.7212422833    4.6791663491
H        2.6876077218   -0.2468291295    4.5157219646
H        0.9217192568   -0.1431235248    4.4655775758
