53

C     -0.83059    1.57589    1.22173
C     -0.88123    0.39770    0.43724
C     -4.57857    3.92751    5.17487
C     -1.71304    1.76631    2.27592
C     -4.33055    2.96933    4.19518
C     -5.28168   -1.22442   -0.40616
C     -6.64440   -2.66853    0.96993
C     -1.80352   -0.61033    0.69429
C     -4.49017    3.61349    6.53715
C     -6.38867   -0.91414   -1.19798
C     -7.76410   -2.37389    0.18512
C     -3.88530    1.34044    5.93413
C     -2.66875    0.76649    2.54685
C     -3.98561    1.65543    4.57387
C     -3.70249    0.64363    3.53380
C     -5.39551   -2.10428    0.68163
C     -2.69396   -0.42232    1.76589
C     -4.14063    2.30973    6.91814
C     -7.61233   -1.50081   -0.88547
C     -4.31323   -0.59182    3.32626
C     -5.43711   -1.22515    4.05498
C     -3.72223    2.91046   11.79282
C     -2.73722    1.95058   11.16084
C     -4.12090    2.10480   10.57384
C     -4.18940   -2.42508    1.54382
C     -4.29470    2.81597    9.26256
N     -3.68185   -1.24885    2.26398
O     -5.69811   -2.41401    3.99504
O     -6.21265   -0.41376    4.81527
O     -4.01176    1.88479    8.20701
F     -8.69428   -1.20554   -1.65371
H     -0.08867    2.33544    0.99128
H     -0.17885    0.27526   -0.38290
H     -4.85370    4.93745    4.88216
H     -1.67459    2.66622    2.88339
H     -4.41753    3.21865    3.14205
H     -4.32321   -0.76693   -0.63577
H     -6.74883   -3.32492    1.82812
H     -1.81813   -1.50911    0.08549
H     -4.69140    4.38030    7.27589
H     -6.31541   -0.23568   -2.04248
H     -8.73847   -2.80178    0.40003
H     -3.60208    0.34192    6.25325
H     -4.16805    2.64187   12.74555
H     -3.54715    3.97562   11.66585
H     -1.90564    2.36911   10.60083
H     -2.50770    1.02827   11.68531
H     -4.81454    1.28361   10.73494
H     -4.43483   -3.19560    2.27026
H     -3.36410   -2.79248    0.93060
H     -3.60760    3.67066    9.19552
H     -5.32198    3.18898    9.15384
H     -5.87367    0.50161    4.80947
