50

C     -5.40243   -2.13884    6.01028
C     -5.87794   -2.87460    7.08883
C     -3.66106   -2.31161    4.03177
C     -4.39149   -4.74320    6.59967
C     -4.40240   -2.70980    5.20127
C     -5.38495   -4.16654    7.39420
C     -3.92434   -3.99498    5.52319
C     -2.81562   -3.34744    3.73664
C     -1.78483   -3.53728    2.68125
C     -7.37760   -5.45633    8.34637
C     -8.84324   -7.45530    9.05839
C     -9.41782   -6.24418    9.71752
C     -0.19857   -3.97372   -1.56494
C     -2.66413   -3.82796   -1.15093
C     -0.29281   -2.62299   -2.34062
C     -2.66219   -2.49243   -1.95651
C     -1.13432   -1.48199   -0.40779
C     -7.91527   -6.30505    9.44910
C     -1.28933   -3.98393   -0.47905
C     -1.02754   -2.77934    0.45217
C     -5.95615   -4.92704    8.56205
N     -1.38187   -1.77492   -1.82352
N     -1.93904   -2.72066    1.59162
O     -0.86100   -4.34028    2.80219
O     -8.03441   -5.19834    7.34821
O     -2.95529   -4.38127    4.63591
H     -5.79954   -1.15032    5.79617
H     -6.66210   -2.45653    7.71448
H     -3.72452   -1.36646    3.50780
H     -3.99522   -5.73339    6.80591
H     -8.75190   -8.37234    9.63210
H     -9.01538   -7.57509    7.99363
H     -9.97583   -5.55295    9.09418
H     -9.73119   -6.31035   10.75483
H     -0.34468   -4.82505   -2.23864
H      0.78826   -4.09707   -1.10507
H     -3.45895   -3.83892   -0.39705
H     -2.84900   -4.68390   -1.80868
H      0.63982   -2.05509   -2.26049
H     -0.47636   -2.78966   -3.40668
H     -2.83365   -2.67275   -3.02237
H     -3.45879   -1.82148   -1.61598
H     -1.95122   -0.84636   -0.04512
H     -0.21633   -0.89183   -0.32969
H     -7.26341   -6.46307   10.30348
H     -1.24121   -4.90381    0.10802
H     -0.02410   -2.88502    0.87170
H     -5.32043   -5.78090    8.82485
H     -5.98949   -4.29885    9.46335
H     -2.82543   -2.24782    1.47261
