50

C     -5.38080   -2.12330    5.82636
C     -5.78900   -2.70757    7.01999
C     -3.68085   -2.49462    3.84226
C     -4.21343   -4.54930    6.77194
C     -4.36873   -2.75631    5.08192
C     -5.21747   -3.90821    7.50346
C     -3.81764   -3.95346    5.57958
C     -2.78978   -3.51117    3.67253
C     -1.82473   -3.76425    2.57871
C     -7.09045   -5.17597    8.69821
C     -8.39878   -7.11595    9.78333
C     -9.05913   -5.85088   10.22475
C      1.92388   -6.63819    1.18706
C      0.05556   -7.67639    2.47811
C      1.21097   -7.13083   -0.11213
C     -0.61847   -8.06979    1.12729
C     -0.71512   -5.79104    0.38262
C     -7.55732   -5.85006    9.94442
C      0.84786   -6.37207    2.25620
C     -0.07901   -5.26904    1.71543
C     -5.71494   -4.50718    8.79264
N     -0.25178   -7.14321    0.04503
N     -1.07513   -4.89294    2.71439
O     -1.72657   -2.98843    1.62314
O     -7.76591   -5.15628    7.67990
O     -2.84993   -4.42204    4.72319
H     -5.83627   -1.20115    5.47638
H     -6.57915   -2.23779    7.59995
H     -3.81511   -1.67171    3.15361
H     -3.76123   -5.47579    7.11497
H     -8.23696   -7.90553   10.51058
H     -8.56690   -7.43762    8.76060
H     -9.67020   -5.32584    9.49769
H     -9.36173   -5.75142   11.26257
H      2.62969   -7.38906    1.55868
H      2.49771   -5.72396    0.99879
H     -0.69318   -7.56320    3.27053
H      0.74374   -8.45759    2.81912
H      1.45333   -6.48441   -0.96144
H      1.53075   -8.14404   -0.37600
H     -0.32705   -9.08031    0.82325
H     -1.70929   -8.06102    1.21750
H     -1.80433   -5.80635    0.47636
H     -0.46832   -5.11909   -0.44338
H     -6.89192   -5.80286   10.80171
H      1.31438   -6.03885    3.18941
H      0.51192   -4.37255    1.50512
H     -5.01080   -5.25421    9.17854
H     -5.79010   -3.74283    9.57857
H     -1.22314   -5.47426    3.52898
