38

C      1.64168    2.58186    1.47441
C      1.00123    2.03009    2.59089
C      1.48420    1.97738    0.22705
C      0.19770    0.90310    2.44080
C      0.70335    0.82323    0.04957
C      0.03884    0.30888    1.18011
C     -0.26148    0.29984   -4.68021
C      0.72020   -0.29487   -5.66955
C     -0.10725   -1.22253   -1.14518
C      0.54860    0.15349   -1.30719
C      1.22226    0.30294   -4.37884
C     -1.27795   -1.20307   -0.16275
C     -2.39782   -0.24724   -0.59466
C     -1.82451   -2.60970    0.06609
C      1.89195    0.01365   -2.04942
N      1.72883   -0.60106   -3.37419
O     -0.78591   -0.78534    1.14174
H      2.25511    3.47306    1.57484
H      1.11587    2.48444    3.57179
H      1.98101    2.41745   -0.63316
H     -0.32915    0.46613    3.28446
H     -0.73812    1.24467   -4.92542
H     -0.87523   -0.39457   -4.11636
H      0.74848   -1.37742   -5.74845
H      0.91545    0.24072   -6.59386
H     -0.43518   -1.59920   -2.11620
H      0.63755   -1.93318   -0.76640
H     -0.10135    0.78288   -1.92758
H      1.71853    1.27654   -4.45788
H     -3.22855   -0.29656    0.11538
H     -2.77157   -0.52169   -1.58693
H     -2.04987    0.78797   -0.63484
H     -2.59818   -2.59656    0.83972
H     -1.02564   -3.28361    0.38909
H     -2.26194   -3.00293   -0.85686
H      2.55203   -0.62824   -1.45500
H      2.38211    0.99674   -2.12355
H      2.62698   -0.96606   -3.68263
