51

C      1.84061   -8.57455    2.18011
C      0.61651   -9.22327    2.14123
C      2.85715   -6.14575    2.05246
C     -0.61163   -7.12872    1.88919
C      1.85088   -7.16906    2.07112
C     -0.60864   -8.51984    1.99889
C      0.62442   -6.48925    1.92700
C      2.19432   -4.95135    1.90509
C      2.66103   -3.56569    1.78431
C     -2.05727  -10.12510    0.64734
C     -3.37045  -12.17142   -0.20953
C     -3.90966  -10.98067   -0.92799
C      4.44953    0.31356    2.98834
C      5.02794   -1.59055    4.51672
C      5.89306    0.42544    2.45047
C      6.49811   -1.22425    4.21843
C      6.03891   -2.00372    1.89939
C     -3.36699  -10.81184    0.49287
C      4.15559   -1.15848    3.32710
C      4.50488   -2.00754    2.08162
C     -1.89956   -9.29064    1.92718
N      4.01371   -3.36894    2.09418
N      6.61429   -0.88189    2.74207
O      1.95612   -2.63027    1.41949
O     -1.16049  -10.22543   -0.17781
O      0.83373   -5.13855    1.82704
H      2.76428   -9.13684    2.28345
H      0.58612  -10.30693    2.20520
H      3.92965   -6.29014    2.09694
H     -1.53143   -6.56456    1.76724
H     -4.06462  -12.91245    0.17397
H     -2.39740  -12.54275   -0.51409
H     -3.29895  -10.55064   -1.71511
H     -4.98354  -10.88289   -1.05112
H      4.32512    0.93874    3.87615
H      3.74911    0.67608    2.23296
H      4.92978   -2.66480    4.69546
H      4.70698   -1.08917    5.43239
H      5.93495    0.56624    1.36877
H      6.46965    1.22008    2.92695
H      6.83582   -0.34294    4.76671
H      7.19486   -2.04138    4.41420
H      6.50409   -2.92811    2.24911
H      6.33918   -1.83493    0.86401
H     -4.09242  -10.66139    1.28700
H      3.09660   -1.28863    3.55154
H      4.03138   -1.53210    1.22077
H     -1.98645   -9.98798    2.77164
H     -2.76445   -8.62239    2.00436
H      4.44476   -4.03699    2.72197
H      7.60390   -0.76946    2.50729
