38

C      1.49364    2.57603    1.49890
C      0.79200    2.01456    2.57315
C      1.42093    1.97178    0.24389
C      0.01241    0.87879    2.37254
C      0.66582    0.80917    0.01780
C     -0.06162    0.28519    1.10365
C      3.25307   -1.88754   -5.02372
C      3.83248   -2.18696   -3.65439
C     -0.06645   -1.23531   -1.23933
C      0.60917    0.13870   -1.34649
C      3.18591   -0.84937   -3.93050
C     -1.28954   -1.22260   -0.32208
C     -2.38408   -0.26187   -0.80535
C     -1.84859   -2.63078   -0.13702
C      2.00066   -0.00688   -1.98733
N      1.90091   -0.60245   -3.32393
O     -0.86947   -0.81810    1.01132
H      2.08945    3.47390    1.63810
H      0.84076    2.46838    3.55974
H      1.96698    2.41716   -0.58326
H     -0.56042    0.43426    3.18153
H      3.93736   -1.71981   -5.85033
H      2.32140   -2.37934   -5.28581
H      3.27552   -2.86976   -3.02011
H      4.91231   -2.22605   -3.54526
H     -0.34312   -1.59633   -2.23228
H      0.65370   -1.95416   -0.83037
H      0.00745    0.77407   -2.01428
H      3.86839    0.00212   -4.02382
H     -3.24789   -0.31021   -0.13589
H     -2.71072   -0.53349   -1.81473
H     -2.03204    0.77267   -0.82600
H     -2.66888   -2.62282    0.58707
H     -1.07087   -3.30633    0.23097
H     -2.22726   -3.01831   -1.08787
H      2.61256   -0.67056   -1.36636
H      2.51603    0.96615   -2.01016
H      1.35775    0.01440   -3.92736
