28   

C       -0.9864303358    0.3276408232    0.5217253382
C       -2.0409334832   -0.5895518645    0.6208308469
C       -1.7878434631    1.4789605396    2.5031844733
C       -3.9210815156    0.3917739006    3.5397769427
C       -2.8339444126    0.5554036260    2.5899832048
C       -0.8416025508    1.3739990025    1.4579442537
C       -2.9511024136   -0.4560449835    1.6616706935
C       -4.6570454247   -0.7109892841    3.1426344409
C       -5.7902527125   -1.3931287484    3.7610273493
C        1.2176043362    2.2844757924    2.5629084569
C       -0.2032470547    3.7696742395    1.0968234239
C        0.3123453184    2.3470651995    1.3292562941
N       -4.0551453528   -1.2375635219    1.9771121053
O       -6.1773432009   -2.5078616311    3.4361591648
O       -6.3724320304   -0.7090112889    4.7738570295
H       -0.2745529083    0.2218152924   -0.2887737717
H       -2.1447444074   -1.3924839112   -0.0980157258
H       -1.7103709083    2.2651781371    3.2438488789
H       -4.1130630717    0.9999325764    4.4155262728
H        0.6734031835    2.5783884633    3.4654245846
H        2.0726789279    2.9562433825    2.4385677376
H        1.5962973215    1.2663582557    2.6984295237
H       -0.8001170247    4.1145147420    1.9465123353
H       -0.8254262016    3.7997456860    0.1966669268
H        0.6363185173    4.4580738107    0.9587483361
H        0.9162813189    2.0657639548    0.4599786495
H       -4.3670052105   -2.0780266320    1.4945208553
H       -7.0858096153   -1.2860249414    5.0903281577
28   

C       -0.7191889199    0.1396854260    0.7973095645
C       -1.7288347558   -0.8220876908    0.9347568249
C       -1.8743698117    1.5911756367    2.3631892672
C       -4.0728014776    0.5522982142    3.3072384975
C       -2.8724268276    0.6206341424    2.4923667335
C       -0.7737940699    1.3587293430    1.5067736857
C       -2.7943241669   -0.5599103402    1.7866856852
C       -4.6811426212   -0.6639054536    3.0512502774
C       -5.8041141019   -1.3321243718    3.7081728754
C        1.0248088916    2.6519738709    2.6881132597
C       -0.1997044114    3.6673091353    0.7277084319
C        0.3382444880    2.3751304252    1.3471041341
N       -3.8866243783   -1.3556469103    2.1081893873
O       -5.9340257219   -2.5466154377    3.7764410529
O       -6.6703826234   -0.4929075572    4.3225475509
H        0.1148321083   -0.0670280623    0.1365845990
H       -1.6780534897   -1.7580877844    0.3929793061
H       -1.9509686744    2.5107379987    2.9299751693
H       -4.4115947410    1.2917204492    4.0227862331
H        0.3239159347    3.0859005792    3.4074564689
H        1.8561628264    3.3502640688    2.5496915076
H        1.4227506035    1.7211804501    3.1047626304
H       -0.9495218867    4.1301471746    1.3763749040
H       -0.6598162145    3.4537190169   -0.2423244832
H        0.6158689507    4.3805505675    0.5729960579
H        1.0935890890    1.9681349337    0.6664264058
H       -4.0548721156   -2.3101668709    1.7973795422
H       -7.3325048434   -1.0709990784    4.7340753369
28   

C       -0.7446479496    0.1688266489    0.7513378498
C       -1.7605356297   -0.7880601059    0.8772759753
C       -1.8844604379    1.6035334338    2.3434997694
C       -4.0776410552    0.5582784488    3.2905572827
C       -2.8882237301    0.6374905062    2.4614862663
C       -0.7881774070    1.3768537109    1.4801648821
C       -2.8211297166   -0.5322206563    1.7373424733
C       -4.6936213610   -0.6508097569    3.0216005853
C       -5.7700641126   -1.3410629969    3.7408592179
C        1.0184156387    2.6416289708    2.6820875565
C       -0.1936590934    3.6894139856    0.7311625065
C        0.3327189030    2.3859262105    1.3362161197
N       -3.9123156765   -1.3301795276    2.0580594021
O       -5.7641513957   -2.5341678982    4.0049147043
O       -6.7434718841   -0.5210690073    4.2005103141
H        0.0865211619   -0.0338970172    0.0857985661
H       -1.7166041817   -1.7167811589    0.3225548775
H       -1.9516061775    2.5134670768    2.9267746211
H       -4.3950388842    1.2790291305    4.0342882924
H        0.3197542620    3.0733802409    3.4048869396
H        1.8559376243    3.3344451870    2.5536109961
H        1.4076449213    1.7029048660    3.0890768642
H       -0.9420686648    4.1495735443    1.3833674735
H       -0.6524070541    3.4909876548   -0.2427170549
H        0.6276359962    4.3984033011    0.5876072944
H        1.0867071299    1.9810411909    0.6527822899
H       -4.0698426330   -2.2867561907    1.7493039013
H       -7.3531923332   -1.1000023300    4.6852067307
28   

C       -0.7784995566    0.1823211380    0.7134478826
C       -1.8012013584   -0.7682042852    0.8332054259
C       -1.8947887932    1.6027746921    2.3345640198
C       -4.0827710294    0.5567259811    3.2907124850
C       -2.9049565427    0.6427401732    2.4465588596
C       -0.8067730237    1.3799743089    1.4599442024
C       -2.8531954089   -0.5166565407    1.7051685318
C       -4.7088442116   -0.6439031980    3.0121550669
C       -5.7521873969   -1.3441299480    3.7827636174
C        1.0149034112    2.6165034152    2.6703069945
C       -0.1953975837    3.6952341507    0.7353311968
C        0.3223809959    2.3810087160    1.3240817097
N       -3.9450215018   -1.3135245144    2.0273411002
O       -5.6274556102   -2.4655034200    4.2472446862
O       -6.8406135809   -0.5867206807    4.0502675774
H        0.0466319241   -0.0177746982    0.0396512511
H       -1.7677761990   -1.6897608377    0.2659784964
H       -1.9495237907    2.5038924747    2.9326228614
H       -4.3785119591    1.2627170913    4.0570349286
H        0.3226873489    3.0466520401    3.4002153115
H        1.8578897964    3.3034867713    2.5462334355
H        1.3975556929    1.6702825675    3.0660192526
H       -0.9382930468    4.1536818331    1.3950182202
H       -0.6585855304    3.5112952846   -0.2392833034
H        0.6310208755    4.3993357126    0.5972548719
H        1.0708475069    1.9774667726    0.6338196840
H       -4.1026197344   -2.2667101638    1.7098836021
H       -7.4119174525   -1.1492061033    4.5970225342
28   

C       -0.7908543577    0.1986826471    0.6994289440
C       -1.8157964442   -0.7490456543    0.8221632711
C       -1.8781960657    1.6038990925    2.3531318947
C       -4.0580945481    0.5560275521    3.3260618367
C       -2.8907038020    0.6466186757    2.4679670480
C       -0.8037338130    1.3874778131    1.4603292445
C       -2.8543702807   -0.5038120075    1.7119096045
C       -4.6915295561   -0.6365995712    3.0422404410
C       -5.7436563493   -1.3296083416    3.8250237614
C        1.0375587189    2.6073531312    2.6586745994
C       -0.1944524761    3.7071943540    0.7494594661
C        0.3269236869    2.3861505451    1.3194867430
N       -3.9462247967   -1.2990272874    2.0381986377
O       -5.5533278557   -2.3220947437    4.5044438432
O       -6.9415058950   -0.7022749560    3.8115623551
H        0.0237940623    0.0035399933    0.0115634615
H       -1.7941985501   -1.6635827329    0.2431598737
H       -1.9209516861    2.4982034367    2.9622782530
H       -4.3407731044    1.2558946507    4.1027154919
H        0.3563113187    3.0331255604    3.4013459952
H        1.8810638920    3.2928164667    2.5297956719
H        1.4222672923    1.6564290836    3.0408760663
H       -0.9276612444    4.1615051603    1.4227138117
H       -0.6704834852    3.5335533910   -0.2208518412
H        0.6321463810    4.4102854815    0.6073737530
H        1.0652134192    1.9867474465    0.6159821346
H       -4.1178165100   -2.2412785252    1.6977875886
H       -7.5114863912   -1.2319660665    4.3913050174
28   

C       -0.7409153550    0.1692355227    0.8096623449
C       -1.7429450872   -0.7940613476    0.9852905864
C       -1.7922545310    1.5820405038    2.4807076189
C       -3.9463953113    0.5322985146    3.5148979507
C       -2.7843277830    0.6106046732    2.6464396969
C       -0.7479936385    1.3700434087    1.5513261543
C       -2.7529427272   -0.5516270925    1.9078591356
C       -4.5678453863   -0.6674623433    3.2654296198
C       -5.7607136132   -1.2733499419    3.9280683613
C        1.1326186919    2.6252952325    2.6392255285
C       -0.2263198879    3.7030395094    0.8045554271
C        0.3512398432    2.3915453397    1.3430212217
N       -3.8345568400   -1.3468125289    2.2642337455
O       -5.7207123935   -2.0011817551    4.8993623941
O       -6.9343355747   -0.9422552067    3.3438255626
H        0.0486753853   -0.0208056362    0.0917917800
H       -1.7300750444   -1.7143326158    0.4151892717
H       -1.8323440331    2.4887943698    3.0713637778
H       -4.2577464305    1.2717180809    4.2423086153
H        0.4853202429    3.0345603897    3.4205890068
H        1.9528342788    3.3285134486    2.4642130344
H        1.5580448899    1.6817037426    2.9955533220
H       -0.9255038330    4.1466023210    1.5197862539
H       -0.7562329425    3.5203446511   -0.1357283787
H        0.5781383910    4.4200110522    0.6131511443
H        1.0545507340    2.0063918498    0.5970046403
H       -4.0457827453   -2.2676691471    1.8904834777
H       -7.6149758139   -1.3888964032    3.8716874881
28   

C       -0.7091444208    0.0989670921    0.9149780563
C       -1.6958780369   -0.8700040451    1.1400920129
C       -1.7279246173    1.5385113390    2.5831318391
C       -3.8724605688    0.5156319156    3.6605215502
C       -2.7064824559    0.5626543923    2.7957487831
C       -0.7081068424    1.3161683806    1.6295470434
C       -2.6829352810   -0.6164553510    2.0843094585
C       -4.4942707223   -0.6959417128    3.4531348401
C       -5.8127149268   -1.1594621454    3.9537379226
C        1.2090993632    2.5936732960    2.6136303161
C       -0.2484029521    3.6544933668    0.8461494978
C        0.3667013179    2.3490487976    1.3590357317
N       -3.7652979934   -1.3995204966    2.4650280819
O       -6.0629183745   -1.5071615922    5.0908484677
O       -6.7349403637   -1.2824771692    2.9707030082
H        0.0591600760   -0.0972771054    0.1760005609
H       -1.6940353598   -1.7993900761    0.5848345019
H       -1.7656608611    2.4611987483    3.1487700778
H       -4.2172298713    1.3032092758    4.3192786635
H        0.5959956651    2.9960777182    3.4256171532
H        2.0114725041    3.3058386508    2.3971884717
H        1.6620972323    1.6552384248    2.9489157189
H       -0.9117672345    4.0976537343    1.5948981583
H       -0.8256540573    3.4644379110   -0.0643419349
H        0.5397133737    4.3762347623    0.6097648178
H        1.0343235697    1.9680938560    0.5788645848
H       -4.0319195636   -2.2903801538    2.0555742692
H       -7.5319544207   -1.6131057175    3.4147412791
28   

C       -0.7026082949    0.1240961479    0.9331299187
C       -1.6959411233   -0.8326670155    1.1813585623
C       -1.6877710474    1.5932645457    2.5953821122
C       -3.8328451403    0.6090382497    3.7041335985
C       -2.6733341706    0.6298774857    2.8303073887
C       -0.6811915034    1.3495791947    1.6332234407
C       -2.6694475551   -0.5585581228    2.1339363558
C       -4.4701540256   -0.6024412540    3.5213735214
C       -5.7970469325   -1.0163893167    4.0153400257
C        1.2703366908    2.6043376907    2.5743330775
C       -0.2087935091    3.6824363741    0.8357598710
C        0.3995759622    2.3693136155    1.3375255009
N       -3.7574167740   -1.3242954250    2.5344289487
O       -6.1430820753   -1.0740225870    5.1799780831
O       -6.6002801515   -1.4865173385    3.0304703608
H        0.0548209549   -0.0881378349    0.1873847810
H       -1.7100286431   -1.7683120085    0.6368884236
H       -1.7105682333    2.5230721278    3.1500826822
H       -4.1683927042    1.4122810493    4.3488603061
H        0.6783462298    3.0136870676    3.3984694546
H        2.0763459899    3.3071044882    2.3413366877
H        1.7190847768    1.6607124904    2.9006495196
H       -0.8491787563    4.1364096506    1.5978916496
H       -0.8084071064    3.4990795868   -0.0615403297
H        0.5838616492    4.3928423933    0.5809017289
H        1.0457779885    1.9791251616    0.5440072191
H       -4.0564459487   -2.2052913944    2.1250327521
H       -7.4164870830   -1.7541910925    3.4825295649
28   

C       -0.7185395737    0.1453879529    0.9037254086
C       -1.7220245084   -0.8037980254    1.1403045496
C       -1.6883400800    1.6049370949    2.5833895050
C       -3.8410039543    0.6292100642    3.6840221314
C       -2.6838801845    0.6492296230    2.8068738178
C       -0.6843126762    1.3621699117    1.6184167144
C       -2.6927678821   -0.5310201746    2.0960622279
C       -4.4920259588   -0.5742330348    3.4858596909
C       -5.8049862226   -0.9857437453    3.9977311689
C        1.2761931110    2.5902935172    2.5775805187
C       -0.1866723747    3.6965188421    0.8430120810
C        0.4076514155    2.3736487277    1.3357580843
N       -3.7876582329   -1.2907541944    2.4894549084
O       -6.2134288495   -0.8290928908    5.1335999578
O       -6.5195908782   -1.7063873658    3.0979953461
H        0.0369980883   -0.0660235912    0.1558383278
H       -1.7456045345   -1.7329514279    0.5851440129
H       -1.7011334799    2.5279570442    3.1496608729
H       -4.1645072949    1.4240966133    4.3453079233
H        0.6854247920    2.9990395313    3.4028874108
H        2.0898715456    3.2869523666    2.3530272836
H        1.7145377898    1.6397945772    2.8980200199
H       -0.8260063497    4.1495604532    1.6066007095
H       -0.7843843923    3.5263538603   -0.0581452844
H        0.6133929562    4.4018561659    0.5974144542
H        1.0531140606    1.9839578552    0.5414014261
H       -4.0987227325   -2.1664738518    2.0766548620
H       -7.3379602913   -1.9412100469    3.5645921046
28   

C       -0.7403430600    0.1702157895    0.8629818678
C       -1.7560255963   -0.7710050159    1.0783458304
C       -1.7069697515    1.6167231944    2.5558137778
C       -3.8732862278    0.6455670734    3.6338154792
C       -2.7145161041    0.6690201577    2.7584788725
C       -0.6981523580    1.3762695508    1.5952453726
C       -2.7310546093   -0.5010328993    2.0304779416
C       -4.5359977470   -0.5478606947    3.4122954464
C       -5.8264074028   -0.9786581975    3.9521444807
C        1.2661746555    2.5700639844    2.5905812498
C       -0.1656482489    3.7135179381    0.8542512938
C        0.4085131738    2.3782526455    1.3370405948
N       -3.8337497225   -1.2567753058    2.4094790696
O       -6.2991767223   -0.6495571103    5.0249264598
O       -6.4499839029   -1.8964073822    3.1706957551
H        0.0191200815   -0.0394115170    0.1185799690
H       -1.7847878111   -1.6925717707    0.5109146083
H       -1.7130859294    2.5310415004    3.1361596999
H       -4.1854099423    1.4266877255    4.3168181771
H        0.6715115017    2.9760156060    3.4144635435
H        2.0902139423    3.2597721307    2.3829668862
H        1.6901137547    1.6108402395    2.9043443686
H       -0.8083553019    4.1641370443    1.6164517665
H       -0.7552777414    3.5609658581   -0.0553402609
H        0.6448024756    4.4128127395    0.6260710242
H        1.0581493189    1.9907763163    0.5450087095
H       -4.1430885384   -2.1354253351    2.0008039340
H       -7.2667932953   -2.1119983114    3.6494177102
28   

C       -0.7424711234    0.2164509533    0.8118379142
C       -1.7697005229   -0.7160284469    1.0097465390
C       -1.6911117971    1.6429872084    2.5316589348
C       -3.8616785239    0.6727133667    3.6019861071
C       -2.7097387416    0.7037895349    2.7175976097
C       -0.6855631328    1.4081557206    1.5662885801
C       -2.7413312516   -0.4518969323    1.9669435695
C       -4.5400916984   -0.5068694271    3.3555514157
C       -5.7976079818   -0.9650496595    3.9413779777
C        1.2833790318    2.5726330025    2.5907565435
C       -0.1223275223    3.7447706391    0.8522116337
C        0.4346225877    2.4000102514    1.3281676222
N       -3.8492569865   -1.2042868887    2.3372984311
O       -6.3343521811   -0.5044209199    4.9328328499
O       -6.3297485006   -2.0337474373    3.2951001372
H        0.0149216380    0.0109381594    0.0641896183
H       -1.8089688498   -1.6271698565    0.4263306102
H       -1.6851014426    2.5456401948    3.1300023007
H       -4.1531786410    1.4343717832    4.3155368555
H        0.6865203265    2.9792776247    3.4126789040
H        2.1168217479    3.2546298346    2.3955364198
H        1.6939354583    1.6064323502    2.9008725363
H       -0.7685496787    4.1938252363    1.6123991586
H       -0.7044425394    3.6058816180   -0.0643864691
H        0.6966399559    4.4386373459    0.6383694412
H        1.0875568477    2.0126968066    0.5387754132
H       -4.1548089937   -2.0879523823    1.9361817168
H       -7.1404136851   -2.2396205209    3.7884544332
28   

C       -0.7819189737    0.2344675265    0.7772704871
C       -1.8239801395   -0.6845614497    0.9601147262
C       -1.7179912171    1.6568754046    2.5073608697
C       -3.9008748495    0.7017331899    3.5659915564
C       -2.7512417055    0.7309735362    2.6785080118
C       -0.7109335302    1.4170242038    1.5448251226
C       -2.7965062135   -0.4160178655    1.9151795910
C       -4.5963085683   -0.4641253137    3.3025064698
C       -5.8215452716   -0.9477713425    3.9326791651
C        1.2683501530    2.5402063889    2.5962841741
C       -0.1047015176    3.7504414503    0.8577561205
C        0.4270734417    2.3927631866    1.3253661846
N       -3.9126726758   -1.1597563506    2.2783025424
O       -6.4421167964   -0.3834280649    4.8158495214
O       -6.2440795624   -2.1388345894    3.4365057738
H       -0.0231855604    0.0249659285    0.0320936553
H       -1.8728187100   -1.5897166885    0.3681662130
H       -1.7004000882    2.5519053360    3.1168280786
H       -4.1728552950    1.4494343928    4.3017116767
H        0.6716411368    2.9489502155    3.4172686998
H        2.1141396154    3.2104901613    2.4139891997
H        1.6609889469    1.5648010432    2.9007556867
H       -0.7502604587    4.2022144985    1.6169040478
H       -0.6811953935    3.6292563350   -0.0648789383
H        0.7267779629    4.4333423334    0.6573576452
H        1.0802637342    2.0023521114    0.5377151490
H       -4.2107456698   -2.0525585027    1.8918954463
H       -7.0526760043   -2.3389843805    3.9356192941
28   

C       -0.7994860748    0.2664482260    0.7399869480
C       -1.8510722148   -0.6446460417    0.9071992841
C       -1.7286484942    1.6759069315    2.4843468283
C       -3.9174267811    0.7216335631    3.5317246204
C       -2.7712554952    0.7577628167    2.6400638603
C       -0.7199114164    1.4382650485    1.5229990830
C       -2.8246560816   -0.3787876457    1.8619304835
C       -4.6235517380   -0.4336223820    3.2503700097
C       -5.8116275527   -0.9527619262    3.9237487212
C        1.2641648533    2.5281348137    2.6014422786
C       -0.0832860301    3.7718178728    0.8664828831
C        0.4304720810    2.4036075126    1.3229364155
N       -3.9442386518   -1.1209380969    2.2175997701
O       -6.5321557814   -0.3307616817    4.6834922571
O       -6.1005622112   -2.2349958752    3.5841066457
H       -0.0392462106    0.0584266113   -0.0040692403
H       -1.9052778804   -1.5426812773    0.3049623861
H       -1.7035772121    2.5618340323    3.1067114990
H       -4.1728502461    1.4516281703    4.2907485094
H        0.6663113505    2.9349626550    3.4225371241
H        2.1187046669    3.1907431769    2.4323285192
H        1.6437585291    1.5452634089    2.8983781568
H       -0.7297898700    4.2218839372    1.6258467534
H       -0.6540740686    3.6668013625   -0.0616584979
H        0.7568709378    4.4479479054    0.6798245024
H        1.0852755260    2.0146177018    0.5359203293
H       -4.2287024689   -2.0231241854    1.8430840422
H       -6.9065110964   -2.4450025618    4.0834099994
28   

C       -0.8611262822    0.2760558834    0.7108638298
C       -1.9256373764   -0.6223053463    0.8646559393
C       -1.7672088458    1.6694185953    2.4800403649
C       -3.9605413343    0.7219725115    3.5239744369
C       -2.8222703201    0.7634211895    2.6227897918
C       -0.7635483540    1.4334936109    1.5129686570
C       -2.8938770060   -0.3582935015    1.8253490630
C       -4.6860709524   -0.4163111872    3.2232415021
C       -5.8386814728   -0.9680592267    3.9368512601
C        1.2287624478    2.4897058387    2.6133009590
C       -0.0916871666    3.7614812218    0.8779493461
C        0.4016746781    2.3840786810    1.3285991933
N       -4.0195388687   -1.0938757732    2.1753894987
O       -6.6632245739   -0.3301812168    4.5660720401
O       -5.9841458550   -2.3054907610    3.7582717490
H       -0.1045287238    0.0689450042   -0.0371517265
H       -1.9928775518   -1.5100968986    0.2487049228
H       -1.7275863896    2.5435875940    3.1180647092
H       -4.1913955726    1.4317547615    4.3094544821
H        0.6317478630    2.9003491442    3.4330711841
H        2.0934181144    3.1414073500    2.4534082138
H        1.5929718494    1.5000618585    2.9069799809
H       -0.7389519207    4.2135322557    1.6355131830
H       -0.6563376807    3.6698220398   -0.0553518318
H        0.7579929310    4.4286982614    0.7027161046
H        1.0568980547    1.9916716663    0.5436287193
H       -4.2971023394   -2.0004185325    1.8067833349
H       -6.7867164100   -2.5335808361    4.2549478895
28   

C       -0.8958474321    0.3007644712    0.6803676580
C       -1.9754848110   -0.5815799118    0.8209258389
C       -1.7866153085    1.6909622810    2.4596797751
C       -3.9938153491    0.7631082391    3.4915516086
C       -2.8566078995    0.8006028153    2.5892876359
C       -0.7827553031    1.4483343016    1.4944973447
C       -2.9432844671   -0.3113765305    1.7803927087
C       -4.7373286877   -0.3591525146    3.1767644894
C       -5.8680229722   -0.9306431795    3.9184847065
C        1.2198020889    2.4620420918    2.6171818347
C       -0.0673853034    3.7691354633    0.8830846817
C        0.3998134792    2.3802880869    1.3260792144
N       -4.0786632088   -1.0355689260    2.1227346072
O       -6.8039965676   -0.3109462785    4.3891141453
O       -5.8585704487   -2.2868306783    3.9318202127
H       -0.1391246166    0.0883059961   -0.0660230543
H       -2.0537548032   -1.4627367080    0.1968090122
H       -1.7346276199    2.5571286331    3.1076346933
H       -4.2058418316    1.4601534225    4.2934061548
H        0.6244136639    2.8766206301    3.4361434408
H        2.0964700794    3.1001332769    2.4681300053
H        1.5652278675    1.4641753688    2.9057001840
H       -0.7126228650    4.2256574709    1.6397016919
H       -0.6267192769    3.6941721105   -0.0548931323
H        0.7944436346    4.4235417495    0.7192755508
H        1.0538880843    1.9830028542    0.5426033409
H       -4.3522601610   -1.9441791074    1.7571909023
H       -6.6627413175   -2.5341125259    4.4163237081
28   

C       -0.9225933922    0.3168769220    0.6560032714
C       -2.0107891653   -0.5566325572    0.7845858382
C       -1.8016132690    1.6928551952    2.4521362234
C       -4.0162755048    0.7696781885    3.4731167595
C       -2.8801353827    0.8110496400    2.5698177199
C       -0.7992618086    1.4528999958    1.4846401544
C       -2.9766722752   -0.2892323622    1.7467819059
C       -4.7699200906   -0.3396920674    3.1436219910
C       -5.8940696780   -0.9315941741    3.8932503350
C        1.2088810177    2.4380242141    2.6240773223
C       -0.0601152190    3.7716130102    0.8966660437
C        0.3928458899    2.3749211619    1.3293644235
N       -4.1176862198   -1.0084219833    2.0803639992
O       -6.9383429236   -0.3764327842    4.1773857444
O       -5.7256675197   -2.2544802701    4.1336365087
H       -0.1671040133    0.1063598099   -0.0921922524
H       -2.0965678297   -1.4293460650    0.1496914069
H       -1.7415011787    2.5498853621    3.1114086697
H       -4.2164471139    1.4540891756    4.2885777526
H        0.6146703225    2.8515142534    3.4444240401
H        2.0921280376    3.0689204737    2.4834491976
H        1.5437830688    1.4345405549    2.9054395758
H       -0.7046048225    4.2270072589    1.6546041657
H       -0.6161134134    3.7097440087   -0.0442507139
H        0.8081285207    4.4197689438    0.7421795051
H        1.0462955088    1.9783679175    0.5449891529
H       -4.3916589574   -1.9114005281    1.7025461924
H       -6.5352030865   -2.5280213632    4.5941014649
28   

C       -0.9246726439    0.2880044651    0.6435238859
C       -1.9992306724   -0.6038820185    0.7579224947
C       -1.8371805932    1.6343522275    2.4456385333
C       -4.0482813151    0.6699306682    3.4391282235
C       -2.9026451461    0.7347730751    2.5486990514
C       -0.8247644000    1.4184658903    1.4827282187
C       -2.9750548439   -0.3601521566    1.7162950310
C       -4.7772240244   -0.4476294908    3.0966810807
C       -5.9288305161   -1.0575531594    3.8076997447
C        1.1706252330    2.4090835858    2.6359557716
C       -0.1198622079    3.7598960064    0.9378419790
C        0.3529019757    2.3610666464    1.3418865931
N       -4.1080098014   -1.0988018811    2.0332408995
O       -7.0651516508   -0.6275459136    3.8273465415
O       -5.6286839956   -2.2533738299    4.3661933771
H       -0.1615148651    0.0962466450   -0.1019360398
H       -2.0672056998   -1.4720186704    0.1146566921
H       -1.7950297038    2.4869542203    3.1119836211
H       -4.2708919263    1.3503247126    4.2519094735
H        0.5715616144    2.7958661495    3.4657687376
H        2.0440946529    3.0559073935    2.5071697792
H        1.5209795517    1.4049397822    2.8953426349
H       -0.7673374183    4.1924918904    1.7064673470
H       -0.6782293875    3.7090248292   -0.0023291508
H        0.7394051897    4.4221240457    0.7931259185
H        1.0097683885    1.9895115856    0.5481696672
H       -4.3739781486   -1.9902505819    1.6246451667
H       -6.4573151072   -2.5562404353    4.7703702496
28   

C       -0.8217962960    0.2400544548    0.7080050173
C       -1.8624537263   -0.6893305522    0.8349897120
C       -1.7635745552    1.5568307460    2.5171150494
C       -3.9601724292    0.5444208695    3.4978403269
C       -2.7970236976    0.6217172232    2.6307390213
C       -0.7540431569    1.3752449153    1.5439517002
C       -2.8371040523   -0.4778500311    1.8021169246
C       -4.6512399243   -0.5942563146    3.1606607866
C       -5.9479945077   -1.1089150896    3.6923408626
C        1.2361653196    2.4194875000    2.6491035047
C       -0.1534840925    3.7538734634    1.0173711660
C        0.3808895936    2.3654030978    1.3805934870
N       -3.9578250128   -1.2386892799    2.1092316485
O       -7.0409112536   -0.8423953158    3.2349022983
O       -5.8117749721   -1.9273975625    4.7599936872
H       -0.0626374934    0.0766681415   -0.0482292035
H       -1.9100862578   -1.5565466660    0.1886556708
H       -1.7494538957    2.4160544113    3.1760686266
H       -4.2459139893    1.2614176297    4.2574945357
H        0.6479630176    2.7657305869    3.5042611939
H        2.0800050583    3.1018828414    2.5073005659
H        1.6318845371    1.4244340329    2.8762457496
H       -0.7882444473    4.1521740905    1.8145276311
H       -0.7414926381    3.6996484591    0.0956186822
H        0.6772424286    4.4478582111    0.8555766808
H        1.0243829967    2.0326868135    0.5591640652
H       -4.2438555819   -2.0939248124    1.6412132667
H       -6.7168096812   -2.1770595108    5.0048993722
28   

C       -0.7439206122    0.1572874072    0.7589807969
C       -1.7460334604   -0.8104604059    0.9106146913
C       -1.6912246607    1.4398043945    2.5891294532
C       -3.8513081735    0.3746548659    3.5871694686
C       -2.6873639723    0.4681729579    2.7247174724
C       -0.6992227488    1.2956432187    1.5923577546
C       -2.7061625397   -0.6339633622    1.8992625470
C       -4.5177212593   -0.7890634660    3.2618941724
C       -5.8931500848   -1.1982705473    3.6370293352
C        1.2926309684    2.4020263460    2.6248763858
C       -0.2159162155    3.7073317148    1.0779219114
C        0.3858895196    2.3342677020    1.3939620090
N       -3.8084681808   -1.4199697572    2.2124624795
O       -6.8444208643   -1.1888765178    2.8768579809
O       -6.0403168279   -1.4929585704    4.9485448026
H        0.0002043850    0.0239531365   -0.0178020384
H       -1.7804570663   -1.6759026196    0.2610654218
H       -1.6985581633    2.3030946626    3.2428448205
H       -4.1830521480    1.1176677841    4.3018650427
H        0.7278035585    2.7086576020    3.5104338286
H        2.1011790105    3.1209409036    2.4599427092
H        1.7374192663    1.4202236481    2.8158934474
H       -0.8267150145    4.0713612202    1.9093955684
H       -0.8436981576    3.6449481228    0.1833083858
H        0.5803554801    4.4342304227    0.8894002861
H        1.0041591076    2.0401073006    0.5391370729
H       -4.1146453879   -2.2441552929    1.7024286597
H       -6.9828549560   -1.6956475094    5.0585041761
28   

C       -0.7579418527    0.1641608975    0.7396953151
C       -1.7583562235   -0.8059160724    0.8876182529
C       -1.6846072812    1.4183046523    2.5998626191
C       -3.8344114143    0.3388104427    3.6042226102
C       -2.6790876840    0.4445101555    2.7317000490
C       -0.7040770663    1.2897772753    1.5897045051
C       -2.7072939036   -0.6447545603    1.8895322834
C       -4.5059452877   -0.8219427994    3.2684075845
C       -5.8724523689   -1.2385256555    3.6315096434
C        1.2965764662    2.3858085596    2.6170229912
C       -0.2290761978    3.7081767097    1.1016530069
C        0.3779032638    2.3322018229    1.3942897556
N       -3.8073500852   -1.4343805774    2.2013738261
O       -6.7562650720   -1.4747885331    2.8241463212
O       -6.1182743466   -1.2205600800    4.9616026782
H       -0.0227033809    0.0429115527   -0.0474547352
H       -1.8004672799   -1.6612187439    0.2251877776
H       -1.6849397982    2.2717171463    3.2664738803
H       -4.1605204413    1.0714987723    4.3322040152
H        0.7401537046    2.6806557722    3.5118490517
H        2.1025571053    3.1078371042    2.4531280142
H        1.7444334809    1.4023067512    2.7913739315
H       -0.8324670992    4.0604138730    1.9435589143
H       -0.8653634865    3.6561701464    0.2123956232
H        0.5641605723    4.4388121570    0.9148009616
H        0.9882079151    2.0498657964    0.5298104388
H       -4.1307743582   -2.2420599488    1.6748473355
H       -7.0537185932   -1.4634520913    5.0491610724
28   

C       -0.7797351312    0.1994891378    0.7074154494
C       -1.7853576193   -0.7663974600    0.8463653258
C       -1.6867329455    1.4299930522    2.5930852224
C       -3.8314042601    0.3422325033    3.6013901004
C       -2.6862605208    0.4602410871    2.7164797817
C       -0.7133568157    1.3111139825    1.5747661107
C       -2.7266014051   -0.6152375432    1.8569290211
C       -4.5104849702   -0.8114995654    3.2529426883
C       -5.8466392577   -1.2737979431    3.6447136256
C        1.2973676063    2.3808108913    2.6116573466
C       -0.2233625783    3.7313696993    1.1161782666
C        0.3755535528    2.3482467098    1.3904107683
N       -3.8258792403   -1.4060725925    2.1674970273
O       -6.6656075215   -1.7429806067    2.8685574269
O       -6.1574039224   -1.0353124438    4.9399903319
H       -0.0496260806    0.0854074434   -0.0855584785
H       -1.8363512705   -1.6118528868    0.1719966887
H       -1.6763817051    2.2719577330    3.2740299447
H       -4.1416068083    1.0567205229    4.3541449976
H        0.7452200774    2.6687860808    3.5113452485
H        2.1079431973    3.0991969751    2.4545324179
H        1.7388978756    1.3922639360    2.7731812785
H       -0.8231940716    4.0764319067    1.9635921102
H       -0.8615304463    3.6942844850    0.2275224373
H        0.5740163161    4.4594067870    0.9370344677
H        0.9822703003    2.0725573701    0.5212720601
H       -4.1575848981   -2.2098155337    1.6391483268
H       -7.0704159524   -1.3480572824    5.0422307620
28   

C       -0.8191411463    0.2272797762    0.6715787466
C       -1.8334231506   -0.7304162562    0.8032397113
C       -1.7038804870    1.4415346032    2.5784260747
C       -3.8450890314    0.3524985424    3.5947048168
C       -2.7118432509    0.4796941339    2.6951717515
C       -0.7369675075    1.3263342482    1.5534607578
C       -2.7672351101   -0.5837428727    1.8212131142
C       -4.5345213537   -0.7925578969    3.2365307664
C       -5.8312240936   -1.3082785185    3.6743937770
C        1.2859690605    2.3634041712    2.6014535695
C       -0.2198967351    3.7442831774    1.1185286575
C        0.3639797316    2.3524589864    1.3797407212
N       -3.8663923273   -1.3734414069    2.1341205800
O       -6.5694137211   -1.9889497970    2.9756171731
O       -6.2046951634   -0.9015007871    4.9101985084
H       -0.0935716953    0.1156995749   -0.1259034610
H       -1.8951543164   -1.5677118415    0.1196293493
H       -1.6799576503    2.2729170876    3.2719240784
H       -4.1330556181    1.0473621006    4.3743037680
H        0.7373074953    2.6497580050    3.5037757829
H        2.1048203317    3.0737589069    2.4508283874
H        1.7161429832    1.3684658406    2.7542132736
H       -0.8168991075    4.0870777924    1.9688686483
H       -0.8576476801    3.7224093971    0.2290760181
H        0.5853065092    4.4655147461    0.9470879487
H        0.9680731033    2.0781554844    0.5083385490
H       -4.1998173853   -2.1830249248    1.6150630335
H       -7.0835702804   -1.2893510109    5.0484066201
28   

C       -0.8908736601    0.2300979978    0.6208645950
C       -1.9188700531   -0.7134181474    0.7474850837
C       -1.7422719139    1.4321052746    2.5507070638
C       -3.8808115058    0.3506523709    3.5824137867
C       -2.7634872544    0.4838179311    2.6633758723
C       -0.7848731954    1.3155520343    1.5169112967
C       -2.8420915875   -0.5664241565    1.7749218756
C       -4.5873763992   -0.7815025797    3.2157750104
C       -5.8371037687   -1.3473621823    3.7156515751
C        1.2532110661    2.3147248528    2.5758931445
C       -0.2276558198    3.7250713129    1.0953547721
C        0.3339327317    2.3235392785    1.3518064607
N       -3.9432575552   -1.3506574842    2.0936546917
O       -6.4818163694   -2.2064048139    3.1287967693
O       -6.2681294641   -0.8125064264    4.8822382278
H       -0.1720628094    0.1169864118   -0.1824999867
H       -1.9972022125   -1.5420425371    0.0550528951
H       -1.6982889083    2.2519858979    3.2568095368
H       -4.1368772084    1.0229423739    4.3924189494
H        0.7078634532    2.6074812829    3.4781431970
H        2.0842824945    3.0116609263    2.4295166745
H        1.6663331419    1.3122239790    2.7263196677
H       -0.8229343081    4.0720464069    1.9452360336
H       -0.8622524724    3.7169760548    0.2034205182
H        0.5889699474    4.4348955085    0.9305524844
H        0.9361846645    2.0432375957    0.4810380800
H       -4.2759734909   -2.1706021347    1.5901491643
H       -7.1027072251   -1.2687512700    5.0754416438
28   

C       -0.9242980253    0.2957629379    0.5687671206
C       -1.9643003919   -0.6367169319    0.6774076735
C       -1.7570470744    1.4679612021    2.5249650780
C       -3.8931746733    0.3776671001    3.5531632264
C       -2.7894558726    0.5299500652    2.6205540523
C       -0.8026223107    1.3604744884    1.4874098520
C       -2.8834675284   -0.4997280904    1.7098120519
C       -4.6110752842   -0.7411827637    3.1681267914
C       -5.8023309394   -1.3745190379    3.7238753191
C        1.2434416652    2.3144844484    2.5756825586
C       -0.2071452686    3.7656573931    1.1045747179
C        0.3328212136    2.3532169163    1.3453707454
N       -3.9849729794   -1.2852652724    2.0236563044
O       -6.3227331952   -2.3789757096    3.2558742072
O       -6.3065837503   -0.7606171258    4.8201214043
H       -0.2068648217    0.1888040823   -0.2366680597
H       -2.0524081370   -1.4517031916   -0.0298827942
H       -1.6990275040    2.2699955725    3.2502941532
H       -4.1200567015    1.0162631366    4.3983812633
H        0.6968253933    2.6040319714    3.4781785756
H        2.0859931330    3.0005026825    2.4440077835
H        1.6404526371    1.3040190587    2.7159389306
H       -0.8047041470    4.1081940340    1.9546793629
H       -0.8345243778    3.7787627082    0.2076181720
H        0.6204689080    4.4663501401    0.9564575498
H        0.9375651261    2.0760030675    0.4753415470
H       -4.3057215186   -2.1159645414    1.5298940449
H       -7.0822978278   -1.2878550823    5.0697343823
