14   

C       -0.3065410960    0.8554447329   -2.0520912089
C       -0.4546071975   -0.1050800792   -0.9694483587
C       -1.0805953518    0.5379209407   -3.1382628457
C       -1.3506898695   -1.1149877132   -1.2687436784
C       -1.7304182729   -2.2922533309   -0.4666153984
C       -1.3075227441   -2.3876753502    0.9916115226
O       -2.3294401386   -3.2374974564   -0.9720184232
S       -2.0200022653   -0.9296860969   -2.8906928614
H        0.3465375085    1.7205698478   -2.0057615189
H        0.0920375945   -0.0322571970   -0.0351017811
H       -1.1170672655    1.1170153972   -4.0534658863
H       -1.7454308282   -1.5604220006    1.5561708644
H       -0.2181783603   -2.3424587436    1.0665278989
H       -1.6537817652   -3.3325660189    1.4199482960
14   

C       -0.2946133762    0.8543344122   -2.0632374958
C       -0.3905704092   -0.1379795954   -1.0036018180
C       -1.1700070676    0.6058731631   -3.0889446057
C       -1.3587959404   -1.0927946966   -1.2525436759
C       -1.6833273090   -2.3078098064   -0.4759223624
C       -1.3076686584   -2.3896260300    0.9961737425
O       -2.1351530253   -3.3085596990   -1.0232198911
S       -2.1483078776   -0.8300452621   -2.8075592557
H        0.3984990887    1.6888559177   -2.0469817312
H        0.2474992917   -0.1298679560   -0.1262528083
H       -1.2565865226    1.2162435330   -3.9801370083
H       -1.8727233685   -1.6426056689    1.5597375939
H       -0.2379075296   -2.2061626759    1.1215307524
H       -1.5443404924   -3.3831343899    1.3874658846
14   

C       -0.2472483624    0.8028528913   -2.0890839316
C       -0.3015569375   -0.2145016959   -1.0503401806
C       -1.2328537620    0.6398503367   -3.0285841765
C       -1.3545341552   -1.0924862340   -1.2209316686
C       -1.6491226625   -2.3311886240   -0.4580830067
C       -1.3278640776   -2.4003546822    1.0281789869
O       -1.9728501424   -3.3657276587   -1.0291846102
S       -2.2696635127   -0.7407672624   -2.6857354109
H        0.4977562952    1.5908375336   -2.1228176724
H        0.4284729687   -0.2814406762   -0.2508311598
H       -1.3654275522    1.2803219200   -3.8925796332
H       -2.0969367711   -1.8640255708    1.5901504802
H       -0.3540853877   -1.9502032626    1.2323081679
H       -1.3089662752   -3.4428414681    1.3582024261
14   

C       -0.2100561668    0.7893783526   -2.1150015330
C       -0.2200324475   -0.2596222585   -1.1067707268
C       -1.2786442052    0.6981892863   -2.9701779579
C       -1.3235462433   -1.0812301735   -1.2088630145
C       -1.5776250923   -2.3475233285   -0.4612913751
C       -1.3629648637   -2.3849675392    1.0448134981
O       -1.7322831720   -3.4089119416   -1.0488497906
S       -2.3422005003   -0.6494050925   -2.5794893208
H        0.5642109501    1.5456122281   -2.1904731472
H        0.5749149378   -0.3935478082   -0.3806567210
H       -1.4554067465    1.3714376072   -3.8006952047
H       -2.2712140584   -2.0418238564    1.5470201962
H       -0.5321557337   -1.7361105114    1.3307248023
H       -1.1418368014   -3.4064225787    1.3665743649
14   

C       -0.6219363646    0.8800536156   -2.0639332385
C       -1.1450669118   -0.0649323251   -1.0889284289
C       -0.4755771566    0.3165170958   -3.3061657221
C       -1.4151212492   -1.2964541590   -1.6403818861
C       -1.8168223781   -2.5434715178   -0.9060892980
C       -3.1130338768   -2.5508004567   -0.1111098335
O       -1.0245455112   -3.4563687255   -0.7369375789
S       -0.9754403535   -1.3714176011   -3.3435766068
H       -0.3631483959    1.9071565226   -1.8291020168
H       -1.2771979803    0.1702095938   -0.0378260034
H       -0.0907661830    0.8407840186   -4.1729690345
H       -3.9398210848   -2.8261290441   -0.7709894468
H       -3.3060683376   -1.5595443786    0.3062255133
H       -3.0494801424   -3.2758715828    0.7049141053
14   

C       -0.4983573664    0.8467280367   -2.0643721320
C       -0.9173150948   -0.0855629361   -1.0284651517
C       -0.5621019870    0.2927315981   -3.3180267841
C       -1.2879360180   -1.3051362919   -1.5376537288
C       -1.7648391147   -2.5112642233   -0.7692471844
C       -3.2429093084   -2.6513922818   -0.4462079046
O       -0.9797236160   -3.3504274001   -0.3625347335
S       -1.1304468725   -1.3735902409   -3.2894567722
H       -0.1687163689    1.8608431745   -1.8643967794
H       -0.9267181101    0.1539082309    0.0300368901
H       -0.2907131196    0.8124317171   -4.2294036147
H       -3.8078238990   -2.7937002069   -1.3709902516
H       -3.5978290384   -1.7472671511    0.0549484467
H       -3.4046861341   -3.5117082980    0.2092768740
14   

C       -0.4076518510    0.8153517258   -2.0198478100
C       -0.7440421611   -0.0978614223   -0.9381253719
C       -0.6851274971    0.2832485150   -3.2532387970
C       -1.2369854488   -1.2979385216   -1.3913625990
C       -1.7865034570   -2.4130662445   -0.5485148739
C       -3.2534155574   -2.7944139577   -0.6762966510
O       -1.0475526772   -3.1403789562    0.0954182174
S       -1.3539733352   -1.3418480109   -3.1490882037
H        0.0114360627    1.8039483132   -1.8644075479
H       -0.6261330064    0.1430798077    0.1137090806
H       -0.5117875570    0.7962097913   -4.1919713888
H       -3.5480409247   -2.8230509952   -1.7279343562
H       -3.8664058199   -2.0557299504   -0.1534220577
H       -3.4253029428   -3.7787410500   -0.2319524554
14   

C       -0.3297948298    0.7853803062   -2.0242351159
C       -0.6382617849   -0.1261216702   -0.9330614708
C       -0.7584439246    0.3075199985   -3.2360606215
C       -1.2578311543   -1.2794122889   -1.3598061234
C       -1.8276026026   -2.3393563969   -0.4745410517
C       -3.2384237371   -2.8552901729   -0.7184081906
O       -1.1176405569   -2.9397640343    0.3196301895
S       -1.5395990225   -1.2641358137   -3.1005000254
H        0.1764249970    1.7354657981   -1.8893301660
H       -0.4155783812    0.0813271382    0.1091215720
H       -0.6319502375    0.8301604540   -4.1769352487
H       -3.3779015096   -3.1048204241   -1.7726758433
H       -3.9603628346   -2.0861619241   -0.4316981098
H       -3.4179318151   -3.7511374035   -0.1173227197
14   

C       -0.2647032404    0.7737405155   -2.0497150950
C       -0.5570472603   -0.1356684096   -0.9524829017
C       -0.8238348958    0.3581777040   -3.2309961677
C       -1.3000820959   -1.2283284570   -1.3470606837
C       -1.8651163358   -2.2571847922   -0.4338124941
C       -3.2149340061   -2.8930020970   -0.7337104242
O       -1.1824790589   -2.7286443510    0.4671185346
S       -1.7145083541   -1.1506368424   -3.0597677988
H        0.3240008086    1.6784271673   -1.9398262637
H       -0.2362332838    0.0278418551    0.0719937133
H       -0.7307596396    0.8911860054   -4.1699481519
H       -3.2312915920   -3.2895788428   -1.7515606689
H       -4.0030430492   -2.1434640915   -0.6237673412
H       -3.4052956362   -3.7116489002   -0.0339127308
14   

C       -0.2137588413    0.7509436375   -2.0810927538
C       -0.5107853899   -0.1501515131   -0.9782809578
C       -0.8788763921    0.4034096098   -3.2290938284
C       -1.3729220135   -1.1669913658   -1.3360935539
C       -1.9360842633   -2.1781790101   -0.4091852739
C       -3.2262259511   -2.9092201336   -0.7516591716
O       -1.3019172712   -2.5312447509    0.5789154469
S       -1.8816499976   -1.0284019652   -3.0194639159
H        0.4548285531    1.6013759226   -1.9983675779
H       -0.1073192300   -0.0367787614    0.0236811388
H       -0.8003345635    0.9431443041   -4.1655217972
H       -3.1513037718   -3.3661768714   -1.7413537707
H       -4.0607703987   -2.2032734298   -0.7391283791
H       -3.4160498294   -3.6950070615   -0.0150106640
14   

C       -0.1762599701    0.7332300332   -2.1015450178
C       -0.4698753351   -0.1626618289   -0.9935717124
C       -0.9431272624    0.4622531181   -3.2060010237
C       -1.4424016995   -1.0931795458   -1.3023089839
C       -1.9927736353   -2.1044403436   -0.3714735702
C       -3.2306172020   -2.9085852102   -0.7412634649
O       -1.4132207524   -2.3549658378    0.6803912698
S       -2.0445325062   -0.8868212474   -2.9474871527
H        0.5642074047    1.5247334034   -2.0534980566
H        0.0166164702   -0.1090451906   -0.0239216831
H       -0.8834527507    1.0116467429   -4.1381928567
H       -3.0722439927   -3.4250568997   -1.6912841105
H       -4.0907965249   -2.2398137980   -0.8292161719
H       -3.4373977806   -3.6518411981    0.0339524413
14   

C       -0.1398065652    0.6900775975   -2.1089646876
C       -0.4399870213   -0.2006549647   -0.9985703237
C       -0.9905633436    0.5043686876   -3.1687925394
C       -1.5113528857   -1.0332458531   -1.2567245076
C       -2.0595452104   -2.0468075813   -0.3281696986
C       -3.2471365515   -2.9084361015   -0.7313763702
O       -1.5579644205   -2.2042578899    0.7805844471
S       -2.1843064726   -0.7532483746   -2.8630563182
H        0.6659968101    1.4164067147   -2.0948131189
H        0.1140035800   -0.2147923814   -0.0643689990
H       -0.9405861250    1.0649883883   -4.0948498338
H       -3.0058454502   -3.4743282988   -1.6348294261
H       -4.1173845193   -2.2745643139   -0.9200964989
H       -3.4878389522   -3.6106364801    0.0718236809
14   

C       -0.1157393434    0.6562627646   -2.1057695327
C       -0.4080271488   -0.2373615760   -0.9956183574
C       -1.0562103726    0.5735407081   -3.1007489545
C       -1.5708550505   -0.9584949081   -1.1821617379
C       -2.1055814874   -1.9836147615   -0.2573902270
C       -3.2543464769   -2.8878324831   -0.6798478817
O       -1.6743232407   -2.0663163370    0.8881755346
S       -2.3297503316   -0.5842808165   -2.7300233606
H        0.7497215240    1.3097006724   -2.1385487103
H        0.2182718188   -0.3350497226   -0.1135873859
H       -1.0268573353    1.1532969963   -4.0158426609
H       -2.9306799540   -3.5344024265   -1.4996585815
H       -4.1060051677   -2.2854331106   -1.0056140492
H       -3.5660472531   -3.5122440925    0.1622315852
14   

C       -0.0996287704    0.6145451142   -2.1190390583
C       -0.3999016519   -0.2788660712   -1.0108762343
C       -1.1011091422    0.6345065562   -3.0558695354
C       -1.6328272759   -0.8873203105   -1.1334554190
C       -2.1730206403   -1.9205873837   -0.2173056566
C       -3.2577935751   -2.8800476272   -0.6852766113
O       -1.8476585908   -1.9289745745    0.9647551831
S       -2.4445318947   -0.4199841135   -2.6283231987
H        0.8150994508    1.1932372493   -2.1930375957
H        0.2723401186   -0.4587683286   -0.1770348442
H       -1.0772164828    1.2311236908   -3.9602241498
H       -2.8484678841   -3.5525449017   -1.4436845045
H       -4.0987194707   -2.3246533729   -1.1074910777
H       -3.6180423538   -3.4753044500    0.1585439865
14   

C       -0.0774851015    0.5527833790   -2.1178023951
C       -0.3906852830   -0.3332301495   -1.0072601032
C       -1.1242354032    0.6746492248   -2.9954126432
C       -1.6771755629   -0.8264753962   -1.0631013315
C       -2.2433077816   -1.8538892055   -0.1488016513
C       -3.2382283331   -2.8812331429   -0.6692732585
O       -2.0537401969   -1.7811944517    1.0589874196
S       -2.5268002572   -0.2694998340   -2.5049989923
H        0.8778621564    1.0531276020   -2.2364324412
H        0.3122381679   -0.5907468962   -0.2206268935
H       -1.1004075910    1.2837158923   -3.8914379603
H       -2.7336997684   -3.5569568145   -1.3648739497
H       -4.0652669813   -2.3845335781   -1.1819731553
H       -3.6403151236   -3.4659494660    0.1629337049
14   

C       -0.0683456922    0.4832927929   -2.1269867007
C       -0.3906636079   -0.4092954432   -1.0242410757
C       -1.1523747790    0.7269939067   -2.9307981267
C       -1.7159660733   -0.7826698754   -1.0095420520
C       -2.3234443515   -1.7980050239   -0.0974803990
C       -3.2064745197   -2.8988668727   -0.6670418372
O       -2.2862138867   -1.6511708156    1.1159005964
S       -2.6009075965   -0.1054012815   -2.3762141515
H        0.9189044544    0.9012939097   -2.2935173514
H        0.3351745999   -0.7554814368   -0.2948009730
H       -1.1299994842    1.3618159194   -3.8088067160
H       -2.5872825841   -3.6120821545   -1.2173894058
H       -3.9561566066   -2.4779887081   -1.3408732481
H       -3.7173145276   -3.4254742664    0.1440055390
14   

C       -0.0589780502    0.4168952303   -2.1765515265
C       -0.3938758657   -0.4943642497   -1.0927200614
C       -1.1638028394    0.7964104745   -2.8953800452
C       -1.7418161475   -0.7495755374   -1.0120213468
C       -2.4115914334   -1.7288531260   -0.0910236035
C       -3.1377458795   -2.9302457209   -0.6766130753
O       -2.5471705920   -1.4862142054    1.0974299167
S       -2.6463450121    0.0722855351   -2.2814934260
H        0.9503133354    0.7527517981   -2.3902121868
H        0.3403661623   -0.9321318122   -0.4237211547
H       -1.1375763873    1.4690679219   -3.7446379456
H       -2.4050997280   -3.6764267474   -0.9948125639
H       -3.7374481481   -2.6282423906   -1.5384263601
H       -3.7951159605   -3.3747422343    0.0758356967
14   

C       -0.6052830015    1.0091778556   -2.0888254203
C       -1.1464987589    0.3438660674   -0.9131341308
C       -0.5010024590    0.1617979778   -3.1629397740
C       -1.4240385114   -0.9810423145   -1.1402192483
C       -2.0007126556   -1.9753138371   -0.1647514271
C       -1.0666041586   -2.7431340589    0.7553452467
O       -3.2050976050   -2.1360297022   -0.0667222928
S       -1.0528748225   -1.4682722548   -2.7903987106
H       -0.3229354666    2.0564801310   -2.1116279225
H       -1.3201663776    0.8423492649    0.0351360494
H       -0.1268041486    0.4543473059   -4.1369713704
H       -0.4168904231   -2.0439581008    1.2878792854
H       -0.4505027349   -3.4257239208    0.1645034655
H       -1.6451414951   -3.3198105668    1.4824672655
14   

C       -0.4871581496    0.9742225331   -2.0568039482
C       -0.9474172067    0.2149028808   -0.9040266189
C       -0.5328281140    0.2392120478   -3.2143044802
C       -1.2838391138   -1.0800864315   -1.2256654796
C       -1.9347339465   -2.0913443136   -0.3261043314
C       -1.2142355084   -2.5312381117    0.9386451422
O       -3.1124617685   -2.3836764894   -0.4572348947
S       -1.1222801441   -1.3987417384   -2.9496647285
H       -0.1610414126    2.0077531937   -2.0066109000
H       -1.0425145635    0.6359843628    0.0915702727
H       -0.2461700981    0.6164983501   -4.1888636816
H       -0.6272919868   -1.7045562883    1.3462134173
H       -0.5433396092   -3.3611289940    0.7019984814
H       -1.9386133934   -2.8592596086    1.6892070275
14   

C       -0.4235025241    0.9296292951   -2.0361255550
C       -0.8243100039    0.1375057862   -0.8833355230
C       -0.6092399943    0.2582322738   -3.2177558729
C       -1.2573627321   -1.1247078004   -1.2333179558
C       -1.8960043232   -2.1382527483   -0.3434972628
C       -1.2762802268   -2.4418343547    1.0128261896
O       -3.0198234132   -2.5627668352   -0.5726440856
S       -1.2616469169   -1.3595393820   -2.9790503579
H       -0.0383968970    1.9416025691   -1.9677226887
H       -0.8127877351    0.5184446286    0.1324753803
H       -0.3881175680    0.6699746318   -4.1954267258
H       -0.8262764135   -1.5427066367    1.4395233243
H       -0.5022011305   -3.2042666034    0.8929329436
H       -2.0412475645   -2.8152309692    1.6992648143
14   

C       -0.3897686253    0.8964948808   -2.0364350779
C       -0.7374800805    0.0719919908   -0.8891600050
C       -0.6982598697    0.2884838348   -3.2263108384
C       -1.2639674749   -1.1519888433   -1.2544037807
C       -1.8611434866   -2.1918134354   -0.3796199062
C       -1.3066690379   -2.4141866660    1.0204067142
O       -2.9082092892   -2.7510237967   -0.6832084283
S       -1.4082499381   -1.3068948918   -3.0042622301
H        0.0496684446    1.8852858089   -1.9572058612
H       -0.6173691763    0.4058989462    0.1358856651
H       -0.5325389104    0.7328956783   -4.2006323925
H       -1.1010137251   -1.4592171860    1.5085551892
H       -0.3808291297   -2.9917294659    0.9556111902
H       -2.0297584454   -2.9690264303    1.6248451399
14   

C       -0.3436605559    0.8790905160   -2.0286627702
C       -0.6420081041    0.0209014014   -0.8923394750
C       -0.8080642888    0.3586933559   -3.2092300906
C       -1.3014107853   -1.1379791521   -1.2575414775
C       -1.8598170092   -2.1968289221   -0.3906537969
C       -1.3224530399   -2.3826832285    1.0205391033
O       -2.8383137072   -2.8506162734   -0.7374369261
S       -1.6140606463   -1.1910134260   -2.9923714312
H        0.1774018090    1.8272802966   -1.9478775321
H       -0.3864541342    0.2817776265    0.1292304699
H       -0.7000443940    0.8402067769   -4.1739835171
H       -1.4110843474   -1.4492723437    1.5815295829
H       -0.2717833268   -2.6810184209    0.9755765973
H       -1.8906018734   -3.1614975939    1.5371045659
14   

C       -0.3115290930    0.8590300741   -2.0500532353
C       -0.5657069667   -0.0318939899   -0.9283241354
C       -0.8765388938    0.4042421557   -3.2135053622
C       -1.3066916913   -1.1437342377   -1.2849035480
C       -1.8115499548   -2.2397516592   -0.4379145525
C       -1.3208453534   -2.3805446632    0.9951801112
O       -2.6770608332   -3.0098379120   -0.8449375615
S       -1.7314777519   -1.1188765729   -2.9972354874
H        0.2557323357    1.7805537490   -1.9718955542
H       -0.2147692446    0.1694636006    0.0783659410
H       -0.8124308298    0.9173068356   -4.1658357081
H       -1.5464759326   -1.4704340936    1.5565343886
H       -0.2412391339   -2.5516621183    0.9988120410
H       -1.8163086757   -3.2274930907    1.4782705318
14   

C       -0.3066924292    0.8648430626   -2.0602561047
C       -0.5085707788   -0.0624512893   -0.9575424371
C       -0.9773836605    0.4801447519   -3.1923659442
C       -1.3294720944   -1.1237153871   -1.2930204723
C       -1.7724029326   -2.2610624425   -0.4683687259
C       -1.3152675919   -2.3771666322    0.9779159763
O       -2.5113566758   -3.1274156332   -0.9287933249
S       -1.8767144621   -1.0158055030   -2.9672974519
H        0.3050278175    1.7583412740   -1.9927381323
H       -0.0581449480    0.0739021475    0.0200627909
H       -0.9631961359    1.0275635025   -4.1274654308
H       -1.6493067973   -1.5027442254    1.5422324822
H       -0.2247666312   -2.4400412887    1.0167036988
H       -1.7394381745   -3.2768275106    1.4327452644
