41   
Generated by ForceBalance from scan.xyz: Frame 1 of 7
C       -0.0517752809   -3.2190457370   -1.7714356764
C       -4.1968240825    7.7465451448    2.4854880011
C       -0.4157817245   -1.9149524688   -2.0715496382
C       -4.3902051548    6.3817405054    2.2715741468
C       -3.8205373353   -0.2843657337    0.3490802336
C       -0.8026709245   -1.4107986616    0.2849347947
C       -2.3369739786    6.2193479588    0.9466654367
C       -4.8314245658    0.1449953500    1.1530069216
C        0.1135572355   -5.0053443920    1.2977390589
C       -1.3726229068    9.7040312204    1.9016650090
C       -2.9959533023    0.8770611084    0.1018800295
C       -0.0850002992   -3.6531003349   -0.4354728928
C       -3.0579899127    8.3591019294    1.9692328525
C       -0.7934319333   -1.0044459717   -1.0541446404
C       -3.4702304905    5.6099844875    1.5289723102
C       -3.5982387349    1.9191794818    0.7833645843
C       -0.4666082545   -2.7367220104    0.5746401730
C       -2.1221635238    7.5614238428    1.2196498643
C       -1.8288926991    1.2174579655   -0.6411937853
C       -3.1022651839    3.2396900801    0.7164994031
N        0.2349960808   -4.9294978918    0.0115726724
N       -2.6294361944    9.7009449385    2.2281563699
N       -1.3920959219    2.4715425202   -0.6794017670
N       -2.0237030308    3.4722218735   -0.0298806619
N       -1.1503136435    0.3055456727   -1.4472879452
N       -3.7529483458    4.2401750561    1.4112643321
O       -4.7214302262    1.4937207928    1.4378761725
S       -0.4078878271   -3.5354557998    2.1312644845
S       -1.0548918224    8.7389963567    0.4224716171
H        0.2413158776   -3.9149495395   -2.5516809581
H       -4.9078979926    8.3244986908    3.0684973306
H       -0.4276901332   -1.5755684671   -3.1038186994
H       -5.2648725946    5.8965401620    2.7003800020
H       -3.6755165001   -1.2905050083   -0.0169499256
H       -1.0448050156   -0.7092653101    1.0751699221
H       -1.6676010788    5.6371247852    0.3288221210
H       -5.6808033776   -0.3515565544    1.6000320658
H        0.3139115694   -5.9043718652    1.8722521289
H       -0.7648012139   10.5987810861    2.0519120332
H       -0.4858026950    0.7721895091   -2.0578682061
H       -4.5794675261    3.9308063548    1.9062914553
41   
Generated by ForceBalance from scan.xyz: Frame 2 of 7
C       -0.0489322934   -3.2399566424   -1.7626797656
C       -4.1763837372    7.7198924096    2.5196153455
C       -0.4009132002   -1.9311522543   -2.0565410778
C       -4.3663192534    6.3602163367    2.3100468969
C       -3.8254625549   -0.2939815888    0.3336766214
C       -0.8133772653   -1.4425293158    0.2984733120
C       -2.3218888039    6.1996175467    0.9735285779
C       -4.8434772229    0.1368487759    1.1277743546
C        0.0674054127   -5.0506837481    1.2944091968
C       -1.4436929919    9.8148774451    1.7501872672
C       -2.9889142111    0.8629640660    0.1064772758
C       -0.1013053115   -3.6839303033   -0.4305955848
C       -3.0443221386    8.3410615711    1.9793348679
C       -0.7851584467   -1.0256677157   -1.0370972351
C       -3.4480747703    5.5904319107    1.5536112200
C       -3.5921072086    1.9042708300    0.7883080288
C       -0.4893681838   -2.7728293340    0.5818352022
C       -2.1245575576    7.5556977878    1.2259527275
C       -1.8099502792    1.2002818009   -0.6190830981
C       -3.0851314698    3.2213970239    0.7385983532
N        0.2050335075   -4.9657670642    0.0104452713
N       -2.6639349682    9.6792304460    2.1716855797
N       -1.3627984447    2.4509522590   -0.6412341245
N       -1.9944665096    3.4513795812    0.0089663380
N       -1.1287373509    0.2895571505   -1.4245674979
N       -3.7366104134    4.2217427046    1.4319907347
O       -4.7270369835    1.4824173075    1.4246571722
S       -0.4548374530   -3.5838607894    2.1328226462
S       -0.9767290034    8.6642803003    0.4757966617
H        0.2491467923   -3.9316406606   -2.5447967781
H       -4.8816459661    8.2998003703    3.1073919036
H       -0.3980284976   -1.5837399548   -3.0861934540
H       -5.2356405978    5.8707806512    2.7449389385
H       -3.6833114043   -1.2982970232   -0.0384458044
H       -1.0606530994   -0.7456434401    1.0912121980
H       -1.6422327938    5.6155854133    0.3690030333
H       -5.7023609691   -0.3566378813    1.5597777672
H        0.2549846889   -5.9553634509    1.8643419329
H       -0.9137902627   10.7637738550    1.8113882171
H       -0.4536291250    0.7561613992   -2.0234362357
H       -4.5674573778    3.9146997733    1.9209535636
41   
Generated by ForceBalance from scan.xyz: Frame 3 of 7
C       -0.0474174766   -3.2541876513   -1.7545601372
C       -4.1507121014    7.7013497883    2.5566762937
C       -0.3885194779   -1.9413298520   -2.0430912506
C       -4.3398386595    6.3442470608    2.3496528161
C       -3.8284920086   -0.2979444419    0.3215850593
C       -0.8214917395   -1.4657991070    0.3109887344
C       -2.3074826375    6.1869586063    0.9960890021
C       -4.8521846135    0.1344005703    1.1075323184
C        0.0273214985   -5.0858497453    1.2913429283
C       -1.5210067411    9.8894243395    1.6099356927
C       -2.9816696086    0.8548267525    0.1118539364
C       -0.1157385613   -3.7066260222   -0.4260442974
C       -3.0280467867    8.3294254715    1.9950803655
C       -0.7774261176   -1.0403065878   -1.0214446927
C       -3.4273699476    5.5770336147    1.5790487795
C       -3.5853512270    1.8954912332    0.7941657748
C       -0.5083372530   -2.7999048975    0.5885729166
C       -2.1226222938    7.5519742815    1.2308757034
C       -1.7925580304    1.1891730739   -0.5984815231
C       -3.0688332627    3.2094484612    0.7596021292
N        0.1784796914   -4.9932055743    0.0094359244
N       -2.6809992172    9.6692799022    2.1445643747
N       -1.3364465467    2.4366386932   -0.6065396875
N       -1.9679650185    3.4368689975    0.0444121957
N       -1.1092502756    0.2794581673   -1.4035869898
N       -3.7207675525    4.2093895227    1.4524546284
O       -4.7301332140    1.4770698786    1.4149499176
S       -0.4940851300   -3.6213866726    2.1343796013
S       -0.9024377068    8.6132085972    0.5503543937
H        0.2542153925   -3.9424749352   -2.5383131427
H       -4.8502986584    8.2815654760    3.1506684326
H       -0.3733017868   -1.5870944449   -3.0703131486
H       -5.2042698845    5.8522739027    2.7914052830
H       -3.6890450371   -1.3005984774   -0.0560038920
H       -1.0724744850   -0.7726972808    1.1058714805
H       -1.6237360997    5.6020393606    0.3971462219
H       -5.7190685634   -0.3561930022    1.5266541657
H        0.2035842346   -5.9954684580    1.8570091219
H       -1.0390261646   10.8630255575    1.6095873514
H       -0.4251852950    0.7457898845   -1.9924092493
H       -4.5555816458    3.9041516723    1.9356195718
41   
Generated by ForceBalance from scan.xyz: Frame 4 of 7
C       -0.0437665575   -3.2634555303   -1.7495814283
C       -4.1241754889    7.6886137256    2.5970226903
C       -0.3729116405   -1.9458631103   -2.0303731058
C       -4.3104198420    6.3316042867    2.3923856051
C       -3.8269960781   -0.2975343615    0.3144576483
C       -0.8311590042   -1.4888052941    0.3226014601
C       -2.2928004099    6.1805393453    1.0169968277
C       -4.8561113873    0.1361430125    1.0925512963
C       -0.0174341226   -5.1229820107    1.2801835590
C       -1.6123320178    9.9379185113    1.4726471601
C       -2.9703553387    0.8508613435    0.1213678033
C       -0.1309910776   -3.7274849095   -0.4262168197
C       -3.0149351830    8.3237767981    2.0142071930
C       -0.7683993423   -1.0515515831   -1.0053571298
C       -3.4058276917    5.5680236355    1.6077619976
C       -3.5742377851    1.8908116258    0.8045746440
C       -0.5299450845   -2.8273383963    0.5918154963
C       -2.1214886644    7.5513638017    1.2342975366
C       -1.7721741641    1.1821436453   -0.5749214253
C       -3.0491135453    3.2016722052    0.7841411251
N        0.1496645221   -5.0198315754    0.0010833259
N       -2.6969458761    9.6716062067    2.1286917212
N       -1.3081057739    2.4266833816   -0.5699943905
N       -1.9393737440    3.4265337315    0.0818480341
N       -1.0869415756    0.2735424077   -1.3796918648
N       -3.7014566138    4.2010615626    1.4771714118
O       -4.7282855079    1.4758268630    1.4103613656
S       -0.5395923411   -3.6627600006    2.1302050774
S       -0.8425689758    8.5869599998    0.6350352763
H        0.2630244856   -3.9464797309   -2.5359301158
H       -4.8193742795    8.2668142279    3.1980262074
H       -0.3429622173   -1.5826568406   -3.0541440342
H       -5.1689555644    5.8367098863    2.8422995371
H       -3.6903046530   -1.2984561308   -0.0687269052
H       -1.0870783414   -0.8012778502    1.1207213301
H       -1.6074063801    5.5961220134    0.4194445342
H       -5.7305253830   -0.3515532630    1.4992323459
H        0.1461747744   -6.0387683079    1.8396626681
H       -1.1687007662   10.9272193526    1.4172308769
H       -0.3945751096    0.7394439622   -1.9590809781
H       -4.5387451758    3.8964869350    1.9564129100
41   
Generated by ForceBalance from scan.xyz: Frame 5 of 7
C       -0.0420997346   -3.2494100508   -1.7614131434
C       -4.0960584945    7.6938582189    2.6272083804
C       -0.3614823010   -1.9286050026   -2.0384205915
C       -4.2814491317    6.3363922855    2.4193237625
C       -3.8219980014   -0.2763810877    0.2869697131
C       -0.8312485145   -1.4796569774    0.3138138410
C       -2.2737567532    6.1943841555    1.0273875886
C       -4.8553206169    0.1574680572    1.0593847627
C       -0.0450164259   -5.1229867257    1.2599115978
C       -1.6993717599    9.9730119583    1.3386196332
C       -2.9583268015    0.8691095202    0.1084321985
C       -0.1399967176   -3.7191319035   -0.4407546296
C       -2.9988948015    8.3337483608    2.0297361937
C       -0.7575848377   -1.0366553352   -1.0115865856
C       -3.3845514689    5.5786345180    1.6215630026
C       -3.5626953128    1.9075649780    0.7934590218
C       -0.5397326047   -2.8212141621    0.5788515118
C       -2.1130693366    7.5673398935    1.2320538949
C       -1.7527981630    1.1991020113   -0.5757191702
C       -3.0300739315    3.2155297104    0.7867407706
N        0.1303593037   -5.0150926896   -0.0177117870
N       -2.7009037497    9.6911514544    2.1114565903
N       -1.2817161350    2.4409010446   -0.5577900449
N       -1.9127351696    3.4393734176    0.0964002376
N       -1.0660595738    0.2923019175   -1.3811755131
N       -3.6831131535    4.2134301595    1.4814810611
O       -4.7237257537    1.4944499405    1.3870116157
S       -0.5637961668   -3.6635422036    2.1132714452
S       -0.7778874700    8.5891336684    0.7303561357
H        0.2651308006   -3.9308516418   -2.5489556754
H       -4.7881628062    8.2685533575    3.2351828414
H       -0.3232296250   -1.5608608179   -3.0602852550
H       -5.1363554565    5.8388039085    2.8731686435
H       -3.6869276042   -1.2755204672   -0.1013951605
H       -1.0882344079   -0.7941966258    1.1134125755
H       -1.5865402060    5.6107240441    0.4311600103
H       -5.7354854596   -0.3284676782    1.4556366914
H        0.1098571717   -6.0422204522    1.8162210055
H       -1.2909064472   10.9740114108    1.2319865042
H       -0.3658927902    0.7581777435   -1.9511253469
H       -4.5236689654    3.9085424338    1.9548124406
41   
Generated by ForceBalance from scan.xyz: Frame 6 of 7
C       -0.0394561303   -3.2377851540   -1.7728674230
C       -4.0606144307    7.7021773523    2.6622301504
C       -0.3483010893   -1.9128908852   -2.0422300097
C       -4.2463336868    6.3422060886    2.4510098705
C       -3.8180104251   -0.2543352458    0.2636058130
C       -0.8320857995   -1.4772652772    0.3094074794
C       -2.2468780383    6.2064430093    1.0456418561
C       -4.8558144661    0.1808352540    1.0292077881
C       -0.0761512268   -5.1320760074    1.2351933380
C       -1.7915348508    9.9758628518    1.2042128610
C       -2.9451056951    0.8866104196    0.1016022486
C       -0.1500034546   -3.7157968448   -0.4561999356
C       -2.9776310303    8.3453407820    2.0516503711
C       -0.7459923053   -1.0253755306   -1.0122178991
C       -3.3594586576    5.5886541035    1.6425108657
C       -3.5492401727    1.9242858176    0.7881226422
C       -0.5512144597   -2.8225341518    0.5669633705
C       -2.0967773156    7.5788664851    1.2347650009
C       -1.7310380608    1.2134577261   -0.5687646255
C       -3.0079546980    3.2286019328    0.7963723635
N        0.1089264975   -5.0164175900   -0.0403736068
N       -2.7022851715    9.7217960627    2.0934988365
N       -1.2519653543    2.4520178045   -0.5369258976
N       -1.8821993177    3.4495777864    0.1191593519
N       -1.0426948059    0.3083444475   -1.3746036586
N       -3.6615486933    4.2257234598    1.4924245949
O       -4.7185646693    1.5146025247    1.3675561905
S       -0.5916540814   -3.6754007215    2.0951973677
S       -0.7175396910    8.6045099963    0.8410568631
H        0.2689749117   -3.9156162232   -2.5630616768
H       -4.7503080501    8.2725716789    3.2771637864
H       -0.3002687302   -1.5381255642   -3.0611116813
H       -5.0984949430    5.8437477288    2.9090176653
H       -3.6858057807   -1.2515601846   -0.1306047625
H       -1.0902583988   -0.7957838075    1.1120158763
H       -1.5560521071    5.6217541090    0.4545589260
H       -5.7429167451   -0.3020314717    1.4135631246
H        0.0689241983   -6.0561551061    1.7860864709
H       -1.4213205843   10.9844646780    1.0292886305
H       -0.3343209315    0.7739455776   -1.9345651761
H       -4.5055793407    3.9209335207    1.9597417879
41   
Generated by ForceBalance from scan.xyz: Frame 7 of 7
C       -0.0380593147   -3.2281337011   -1.7862957868
C       -4.0221967044    7.7065910218    2.7079732263
C       -0.3276641547   -1.8966945711   -2.0446868251
C       -4.2033831150    6.3400427760    2.4949750334
C       -3.8048322827   -0.2318855466    0.2367772853
C       -0.8335797297   -1.4809918210    0.3060661976
C       -2.2186337662    6.2198494599    1.0647917504
C       -4.8490163990    0.2040403111    0.9932094855
C       -0.1339299837   -5.1549479370    1.1997439030
C       -1.9257223744    9.9485153125    1.0566236865
C       -2.9209349589    0.9035554662    0.0970503686
C       -0.1699929306   -3.7192386332   -0.4764294992
C       -2.9650376813    8.3562676044    2.0762602131
C       -0.7268431624   -1.0159723040   -1.0094807681
C       -3.3306428744    5.5956778698    1.6716345135
C       -3.5258765636    1.9392930815    0.7858275698
C       -0.5721033779   -2.8323364466    0.5519194082
C       -2.0862890486    7.5898069656    1.2312388459
C       -1.6960421412    1.2275049888   -0.5547728893
C       -2.9748355840    3.2391828745    0.8133937492
N        0.0676639950   -5.0275851456   -0.0722011004
N       -2.7313837680    9.7691327763    2.0590263311
N       -1.2080578029    2.4621409076   -0.5049610297
N       -1.8387739365    3.4579008993    0.1531649803
N       -1.0043082216    0.3250023309   -1.3603078044
N       -3.6308310797    4.2339854632    1.5113189920
O       -4.7057259250    1.5333668765    1.3462199485
S       -0.6412001513   -3.7014388599    2.0699312350
S       -0.6902632361    8.6521311160    0.9420449595
H        0.2713586477   -3.9010280251   -2.5803068355
H       -4.7083347835    8.2678586275    3.3354891197
H       -0.2632803321   -1.5114116932   -3.0587294005
H       -5.0470228064    5.8376347819    2.9642395395
H       -3.6754586346   -1.2262545859   -0.1654752672
H       -1.0931160499   -0.8051601837    1.1130250486
H       -1.5212698479    5.6345013585    0.4818217758
H       -5.7447923918   -0.2754394278    1.3613425994
H       -0.0070572209   -6.0868314598    1.7419175960
H       -1.6178632351   10.9558413459    0.7683238499
H       -0.2841049605    0.7897939949   -1.9056618405
H       -4.4767939640    3.9265149093    1.9735891381
