13   
Generated by ForceBalance from scan.xyz: Frame 1 of 24
C       -0.4562614313    0.8435735760    0.6016817633
C       -0.7720309094   -0.7391201694    2.5518972221
C       -0.1941234812    0.5904225278    2.0810258383
O       -0.5313870442   -0.8175890697    3.9664374880
O       -0.7878035273    1.6658922445    2.8154334643
H       -1.5064769854    1.1127935654    0.4521394864
H        0.1492464669    1.6837924503    0.2500939080
H       -0.2117923943   -0.0338221998   -0.0058664721
H       -1.8497490146   -0.7626744674    2.3379922316
H       -0.2828397724   -1.5720986164    2.0277442286
H        0.8900905997    0.5853494190    2.2729784185
H       -1.0680183384   -1.5335997197    4.3372890371
H       -0.7342346592    1.4122568829    3.7531998742
13   
Generated by ForceBalance from scan.xyz: Frame 2 of 24
C       -0.4555054702    0.8406744851    0.5998447836
C       -0.7414615924   -0.7530103989    2.5496970100
C       -0.2065620564    0.5969051418    2.0877601395
O       -0.5254897105   -0.8224952972    3.9680455775
O       -0.8552875545    1.6491633085    2.8127792553
H       -1.4331691060    1.3139261865    0.4717352547
H        0.2902797682    1.5275605030    0.1899600700
H       -0.4171918489   -0.0872394270    0.0199759767
H       -1.8131376287   -0.8175263887    2.3140147666
H       -0.2106905155   -1.5662225927    2.0348269876
H        0.8712104005    0.6415888477    2.3050839734
H       -1.0389805707   -1.5603305031    4.3287173751
H       -0.7963824708    1.4033643122    3.7524013567
13   
Generated by ForceBalance from scan.xyz: Frame 3 of 24
C       -0.4608709598    0.8532924355    0.5998841649
C       -0.7098691752   -0.7512569497    2.5483529851
C       -0.2284510344    0.6224982583    2.0979054945
O       -0.5042781373   -0.8208808523    3.9678852527
O       -0.9363453263    1.6414706360    2.8157410696
H       -1.3175587114    1.5200984300    0.4734387548
H        0.4014116055    1.3355395320    0.1314813865
H       -0.6555634703   -0.0809314996    0.0626768616
H       -1.7757769757   -0.8586712393    2.3020162020
H       -0.1410581302   -1.5378744432    2.0324335411
H        0.8416004602    0.7087434463    2.3375807700
H       -0.9898334262   -1.5817304528    4.3193368767
H       -0.8786623821    1.3967211617    3.7558204328
13   
Generated by ForceBalance from scan.xyz: Frame 4 of 24
C       -0.4676342917    0.8696589647    0.6036395277
C       -0.6799012149   -0.7412200072    2.5489909821
C       -0.2578708097    0.6558996459    2.1097841423
O       -0.4707035501   -0.8142424326    3.9679278197
O       -1.0263215403    1.6362627618    2.8160905169
H       -1.1551541525    1.7062598717    0.4584304114
H        0.4689326963    1.1017623417    0.0900867750
H       -0.9059602264   -0.0108504622    0.1208927082
H       -1.7407317368   -0.8909501525    2.3030189025
H       -0.0794985253   -1.4985073945    2.0246107916
H        0.8046033148    0.7752519304    2.3688787531
H       -0.9162815169   -1.6027455955    4.3114216376
H       -0.9816272827    1.3875705483    3.7558786793
13   
Generated by ForceBalance from scan.xyz: Frame 5 of 24
C       -0.4715124923    0.8865898293    0.6146581359
C       -0.6494434537   -0.7312961657    2.5513913977
C       -0.2840033268    0.6853926328    2.1226944736
O       -0.4423447482   -0.8045566573    3.9710313264
O       -1.1078836178    1.6275896248    2.8143442910
H       -0.9548388083    1.8513867116    0.4427756200
H        0.4797813539    0.8608022403    0.0770347036
H       -1.1270120910    0.1209947176    0.1834968556
H       -1.7025925851   -0.9225815490    2.3019020321
H       -0.0174028641   -1.4602310273    2.0238022145
H        0.7710822750    0.8369311294    2.3970274135
H       -0.8471779593   -1.6183477813    4.3060421777
H       -1.0842147794    1.3694427012    3.7522921399
13   
Generated by ForceBalance from scan.xyz: Frame 6 of 24
C       -0.4820054267    0.9005525031    0.6234947991
C       -0.6186370971   -0.7270788261    2.5510969054
C       -0.3074940865    0.7046332545    2.1282518269
O       -0.4253688400   -0.7916587934    3.9735211359
O       -1.1794166111    1.6110485149    2.8067348951
H       -0.7484399289    1.9421530821    0.4262770295
H        0.4287307227    0.6464626261    0.0744157590
H       -1.3032962429    0.2860091934    0.2364297377
H       -1.6597596705   -0.9625651576    2.2899742661
H        0.0495384603   -1.4293110088    2.0319964409
H        0.7389054347    0.8971697392    2.4123748800
H       -0.7975977416   -1.6229496315    4.3033625788
H       -1.1645085308    1.3495962935    3.7438578840
13   
Generated by ForceBalance from scan.xyz: Frame 7 of 24
C       -0.4945272203    0.9111212897    0.6299779582
C       -0.5875348248   -0.7259018148    2.5515369373
C       -0.3267619979    0.7165003821    2.1314101881
O       -0.4180592123   -0.7785660707    3.9778511902
O       -1.2389200670    1.5899834496    2.7992203012
H       -0.5419240008    1.9800094998    0.4048408471
H        0.3368936525    0.4644193668    0.0764669073
H       -1.4315502795    0.4630853910    0.2804694881
H       -1.6133537105   -1.0042559760    2.2727465596
H        0.1179894633   -1.4021538568    2.0481497435
H        0.7080963211    0.9566938065    2.4229309610
H       -0.7636754216   -1.6227577043    4.3038789021
H       -1.2266052927    1.3278351488    3.7360881210
13   
Generated by ForceBalance from scan.xyz: Frame 8 of 24
C       -0.5202470482    0.9286391439    0.6343036150
C       -0.5537518476   -0.7179431779    2.5524108943
C       -0.3457109584    0.7332273125    2.1333657352
O       -0.4218796903   -0.7582512356    3.9831283761
O       -1.2927516186    1.5722204383    2.7992141575
H       -0.3580115084    1.9781700170    0.3742864317
H        0.1984565624    0.3206391818    0.0745429785
H       -1.5338508988    0.6527519847    0.3258224970
H       -1.5571088736   -1.0444005021    2.2454520227
H        0.1966107771   -1.3630106818    2.0740464699
H        0.6748061717    1.0257008633    2.4273093821
H       -0.7539833490   -1.6092659875    4.3052131637
H       -1.2696621709    1.3124199847    3.7365536486
13   
Generated by ForceBalance from scan.xyz: Frame 9 of 24
C       -0.5389969640    0.9396877670    0.6357604816
C       -0.5241081194   -0.7140403017    2.5518789126
C       -0.3674139359    0.7443828188    2.1369596779
O       -0.4222156595   -0.7500282854    3.9847447367
O       -1.3545424792    1.5451710373    2.7953203567
H       -0.1781413092    1.9259615624    0.3323971773
H        0.0384357765    0.1932994626    0.0783467821
H       -1.5936645160    0.8460923210    0.3610500163
H       -1.5055811363   -1.0820897740    2.2215832242
H        0.2635761315   -1.3263023824    2.0908909253
H        0.6318662311    1.0883722003    2.4458947557
H       -0.7311146369   -1.6121172884    4.3002588710
H       -1.3185831081    1.2967425869    3.7353288155
13   
Generated by ForceBalance from scan.xyz: Frame 10 of 24
C       -0.5377987221    0.9404049341    0.6349609534
C       -0.4899412719   -0.7156402631    2.5523092764
C       -0.3807044862    0.7481976928    2.1428064699
O       -0.4164801217   -0.7527358354    3.9862587544
O       -1.4095948580    1.5092235198    2.7879979440
H        0.0119172671    1.8185168822    0.2867797862
H       -0.1416496337    0.0779659546    0.0861826605
H       -1.5961510605    1.0531252656    0.3860614402
H       -1.4494494163   -1.1196273043    2.1996141923
H        0.3300210667   -1.2953504810    2.1055361104
H        0.5945758846    1.1348464877    2.4747356589
H       -0.6969068364   -1.6275559956    4.2931610993
H       -1.3735204651    1.2651730989    3.7292560067
13   
Generated by ForceBalance from scan.xyz: Frame 11 of 24
C       -0.5441019875    0.9482590109    0.6332155266
C       -0.4604083639   -0.7040327339    2.5554657960
C       -0.4092316933    0.7638934160    2.1495475498
O       -0.3975315580   -0.7431086664    3.9895663065
O       -1.4827668659    1.4759601151    2.7781959244
H        0.1755411398    1.6743709672    0.2468305211
H       -0.3707302935    0.0077854372    0.0974932474
H       -1.5553304102    1.2901318009    0.4007020321
H       -1.3993637552   -1.1461161851    2.1931069028
H        0.3865527175   -1.2471998773    2.1126703477
H        0.5425869696    1.1865936270    2.5035630628
H       -0.6433734495   -1.6300254107    4.2913990299
H       -1.4498959306    1.2338079261    3.7201453621
13   
Generated by ForceBalance from scan.xyz: Frame 12 of 24
C       -0.5627230223    0.9516761343    0.6356188580
C       -0.4393549299   -0.6865785555    2.5657608975
C       -0.4553248885    0.7819122686    2.1580413752
O       -0.3669453656   -0.7217551891    3.9996913569
O       -1.5732244352    1.4389289172    2.7654694715
H        0.2979528400    1.4846776764    0.2233785448
H       -0.6438065280   -0.0105676224    0.1180372003
H       -1.4612517145    1.5303527055    0.4086121275
H       -1.3607948959   -1.1689215600    2.2099949676
H        0.4272520434   -1.1929051529    2.1167808677
H        0.4755770162    1.2357771049    2.5290027073
H       -0.5606200147   -1.6212066813    4.3026357860
H       -1.5484252695    1.1965186486    3.7076020310
13   
Generated by ForceBalance from scan.xyz: Frame 13 of 24
C       -0.4174184901    0.8153559745    0.5932189795
C       -1.0739032470   -0.5035279178    2.6496369761
C       -0.0441501367    0.4347750194    2.0301846553
O       -0.6308868038   -0.7849473421    3.9868920047
O        0.0516219731    1.6299785944    2.8090461338
H        0.1841787531    0.2682214747   -0.1378297907
H       -1.4783483597    0.6483706955    0.3790394360
H       -0.2122335692    1.8798610592    0.4519542268
H       -2.0538540228   -0.0059858121    2.6616168554
H       -1.1473397852   -1.4270759080    2.0573448501
H        0.9180737811   -0.0994542451    2.0413151844
H       -1.3502503510   -1.2156726599    4.4720273387
H        0.1311250705    1.3430054046    3.7355178111
13   
Generated by ForceBalance from scan.xyz: Frame 14 of 24
C       -0.4159217500    0.8373110996    0.6057678511
C       -1.0469081079   -0.5147528045    2.6447449887
C       -0.0494762662    0.4685535833    2.0418274119
O       -0.6049082613   -0.7870197686    3.9847870232
O       -0.0146330088    1.6642777308    2.8230622016
H        0.0231556055    0.1341991814   -0.1082331169
H       -1.4992832686    0.8850598886    0.4546380962
H       -0.0023251402    1.8250946793    0.3827551211
H       -2.0458499720   -0.0567837137    2.6517003166
H       -1.0786312001   -1.4368422241    2.0466977453
H        0.9334885537   -0.0274997888    2.0594414546
H       -1.3109500157   -1.2492512213    4.4604730552
H        0.0570991614    1.3788536749    3.7505148143
13   
Generated by ForceBalance from scan.xyz: Frame 15 of 24
C       -0.4261017978    0.8228620857    0.5990321476
C       -1.0358358676   -0.5578414386    2.6250476237
C       -0.0675199848    0.4616173958    2.0347029643
O       -0.6155506617   -0.7928665606    3.9794257300
O       -0.0862301489    1.6581605823    2.8150641463
H       -0.1720946999    0.0069294035   -0.0850998162
H       -1.4897714125    1.0630776403    0.4995773310
H        0.1488594957    1.7027781252    0.2967254510
H       -2.0544291060   -0.1463426452    2.6011763434
H       -1.0102120589   -1.4886492451    2.0408273044
H        0.9365737879    0.0092548348    2.0606108300
H       -1.3166317997   -1.2704256040    4.4471507543
H       -0.0237190837    1.3750830983    3.7438751775
13   
Generated by ForceBalance from scan.xyz: Frame 16 of 24
C       -0.4251443420    0.8290336283    0.6021897309
C       -1.0144338754   -0.5839575195    2.6139366689
C       -0.0744910927    0.4698530356    2.0388232476
O       -0.6187955433   -0.7894789917    3.9803949547
O       -0.1468109245    1.6647396071    2.8205137116
H       -0.3700577942   -0.0516572374   -0.0463754212
H       -1.4367379445    1.2446926155    0.5471906613
H        0.2723206279    1.5816915371    0.2249840519
H       -2.0486384226   -0.2164723087    2.5600812302
H       -0.9341970423   -1.5183098382    2.0407652108
H        0.9495425826    0.0659288024    2.0792847825
H       -1.3145956536   -1.2844886256    4.4376486193
H       -0.0771467410    1.3829860181    3.7491685615
13   
Generated by ForceBalance from scan.xyz: Frame 17 of 24
C       -0.4222791925    0.8303751661    0.6028659979
C       -0.9916022003   -0.6084978224    2.6049702038
C       -0.0799273333    0.4771580330    2.0447799126
O       -0.6229587904   -0.7884827578    3.9820881041
O       -0.2077072219    1.6698933307    2.8255312304
H       -0.5733417579   -0.0709922855   -0.0009204928
H       -1.3502178542    1.4111574383    0.5809619278
H        0.3682092890    1.4344527465    0.1509070350
H       -2.0379776704   -0.2830362982    2.5210731276
H       -0.8590497384   -1.5429834461    2.0419493660
H        0.9606706987    0.1224400747    2.1068818287
H       -1.3121592698   -1.3032956609    4.4272163498
H       -0.1256943386    1.3926737038    3.7545366547
13   
Generated by ForceBalance from scan.xyz: Frame 18 of 24
C       -0.4232589161    0.8402031154    0.6029815384
C       -0.9645680450   -0.6222842432    2.5993240228
C       -0.0869751401    0.4974835682    2.0534162823
O       -0.6143672949   -0.7878804908    3.9824064835
O       -0.2741068490    1.6844533448    2.8343722222
H       -0.7803645211   -0.0381260916    0.0542061031
H       -1.2296670156    1.5799951967    0.5958498359
H        0.4350660562    1.2658935416    0.0782099740
H       -2.0211946736   -0.3376898733    2.4952825805
H       -0.7853949835   -1.5505185773    2.0386977638
H        0.9665496699    0.1909074080    2.1379385601
H       -1.2904441211   -1.3296732293    4.4154434581
H       -0.1821078348    1.4112391274    3.7637221408
13   
Generated by ForceBalance from scan.xyz: Frame 19 of 24
C       -0.4233183003    0.8382064353    0.6005623476
C       -0.9387570558   -0.6404798515    2.5950690640
C       -0.0987099841    0.5144756215    2.0633673182
O       -0.6006006335   -0.7996347767    3.9816343772
O       -0.3490363596    1.6920662015    2.8412783366
H       -0.9815034552    0.0285847022    0.1176124458
H       -1.0562874686    1.7294759938    0.5748183416
H        0.4759206056    1.0408606943    0.0142493131
H       -2.0040370196   -0.3956489209    2.4782294971
H       -0.7173495101   -1.5580819560    2.0316977734
H        0.9629083765    0.2470214852    2.1706759788
H       -1.2602460959   -1.3699354655    4.4033066142
H       -0.2612122396    1.4217582295    3.7719475676
13   
Generated by ForceBalance from scan.xyz: Frame 20 of 24
C       -0.4307387377    0.8426165012    0.6036585305
C       -0.9128737069   -0.6509522431    2.5941125025
C       -0.1184120270    0.5425393543    2.0769989548
O       -0.5697362104   -0.8131190005    3.9792033592
O       -0.4353786940    1.7048721632    2.8510251526
H       -1.1731827684    0.1504039887    0.1912760803
H       -0.8367594061    1.8541032311    0.5278592487
H        0.4636225638    0.7854152616   -0.0221078403
H       -1.9866975880   -0.4457782868    2.4797548339
H       -0.6563458691   -1.5520491159    2.0186823741
H        0.9490047695    0.3073661791    2.2015658342
H       -1.2031522686   -1.4190345661    4.3913892730
H       -0.3602510701    1.4361350849    3.7833471885
13   
Generated by ForceBalance from scan.xyz: Frame 21 of 24
C       -0.4271892142    0.8230818899    0.5963623861
C       -0.8908656536   -0.6777162748    2.5798850074
C       -0.1374049938    0.5484710845    2.0766771252
O       -0.5508679176   -0.8366450298    3.9664862939
O       -0.5203100202    1.6972820135    2.8374941602
H       -1.3191622500    0.2916171625    0.2464967321
H       -0.5785957393    1.8947590851    0.4498711322
H        0.4073430182    0.5050847777   -0.0355565986
H       -1.9706326950   -0.5107446591    2.4609490264
H       -0.5985969207   -1.5648256236    1.9994786995
H        0.9342174209    0.3439356701    2.2214647044
H       -1.1551830297   -1.4793363490    4.3666452105
H       -0.4668138133    1.4321894353    3.7722601524
13   
Generated by ForceBalance from scan.xyz: Frame 22 of 24
C       -0.4319879288    0.8376753110    0.6061761377
C       -0.8611442792   -0.6842943153    2.5756023620
C       -0.1532201735    0.5740846430    2.0850148698
O       -0.5290841083   -0.8328949376    3.9656949468
O       -0.5933946081    1.7042902537    2.8403873296
H       -1.4301261901    0.4939476974    0.3131151739
H       -0.3491099734    1.9074373881    0.4010557075
H        0.2915854807    0.3090264878   -0.0228313522
H       -1.9455658398   -0.5615814446    2.4469401978
H       -0.5270477029   -1.5573225764    1.9965995797
H        0.9247681083    0.4099209198    2.2385243443
H       -1.1093254346   -1.5025856505    4.3571625015
H       -0.5541118784    1.4366005913    3.7750217420
13   
Generated by ForceBalance from scan.xyz: Frame 23 of 24
C       -0.4332899318    0.8355255982    0.6053287507
C       -0.8324107354   -0.7052800570    2.5661025342
C       -0.1661445755    0.5783536197    2.0828188170
O       -0.5238655340   -0.8304827742    3.9642487590
O       -0.6591503643    1.6926308704    2.8290237139
H       -1.4917795017    0.6931487589    0.3621482702
H       -0.1490058025    1.8595978188    0.3507187932
H        0.1516001933    0.1493947847   -0.0163634017
H       -1.9180583039   -0.6288325334    2.4143219921
H       -0.4502318245   -1.5679760736    2.0020192730
H        0.9168304798    0.4627390817    2.2479799859
H       -1.0855551954   -1.5195993684    4.3489847695
H       -0.6231213853    1.4281361194    3.7646308594
13   
Generated by ForceBalance from scan.xyz: Frame 24 of 24
C       -0.4448134383    0.8341339844    0.6013337342
C       -0.8017486907   -0.7299863309    2.5550692467
C       -0.1790377826    0.5773071722    2.0775820285
O       -0.5322930376   -0.8262645985    3.9636587848
O       -0.7206102882    1.6732998494    2.8187131181
H       -1.5210116678    0.8982267437    0.4098811945
H        0.0096144317    1.7824932532    0.3017797422
H       -0.0206365007    0.0367638471   -0.0178052609
H       -1.8842231446   -0.7065666609    2.3674267497
H       -0.3612971790   -1.5801801017    2.0154552305
H        0.9069016640    0.5158090682    2.2519430401
H       -1.0859985663   -1.5251231720    4.3421670489
H       -0.6814087819    1.4103262177    3.7546280171
