24   

C       -1.2781326252   -1.2659340523    2.3558990034
C       -3.7704654246    0.3022871552    3.2429989715
C       -4.9904586694    0.8868078555    1.2460867111
C       -4.9035448356    0.6000851132    4.0100537373
C       -6.1162768026    1.1835531405    2.0224738775
C       -3.7937011450    0.4228059300    1.8364152359
C       -6.0854771123    1.0382900823    3.4100905590
C       -2.6854717471    0.1432730852    0.9320187222
C       -0.4559275363   -0.7175781370    0.1276010476
C       -1.5263417131   -0.5549163862    1.1402471041
C       -1.0324564855    0.8666826485   -3.0389174693
N       -1.0334145061   -1.8567802258    3.3295637570
N       -0.3204903614   -0.2232676714   -1.0864967029
O       -1.2756949716    0.6523590668   -1.6485700436
Cl      -7.4929705868    1.4058282431    4.3761371259
H       -2.8886311660    0.0053569118    3.7917383981
H       -5.0602633319    1.0115532158    0.1713311548
H       -4.8640939325    0.4952630893    5.0881816394
H       -7.0266494731    1.5292510726    1.5467673643
H       -2.8809220199    0.4903962340   -0.0686529269
H        0.3705343746   -1.3538498304    0.4251931481
H       -1.8512177391    1.4481163400   -3.4719859848
H       -0.9637283654   -0.0906584515   -3.5652390775
H       -0.0962264281    1.4162943107   -3.1748881405
24   

C       -1.4370494276   -1.3674273947    2.3135917436
C       -3.6799366246    0.5025455122    3.2273299314
C       -5.0665872739    0.7147059799    1.2621347233
C       -4.7930805813    0.7732108074    4.0322175106
C       -6.1729450974    0.9859040069    2.0754934181
C       -3.7981109251    0.4577746500    1.8240668906
C       -6.0477932115    1.0141372147    3.4665687191
C       -2.7027396075    0.1672812213    0.9032968785
C       -0.5344303142   -0.8381991001    0.1035015823
C       -1.6012822411   -0.6175782986    1.1064087115
C       -0.9013562994    0.9824945811   -2.9645164416
N       -1.2691792967   -1.9827290872    3.2881996712
N       -0.3377574602   -0.3005032297   -1.0828515196
O       -1.1973900018    0.6953249255   -1.5976866111
Cl      -7.4312337674    1.3494847256    4.4780148753
H       -2.7288251193    0.3545974327    3.7228717157
H       -5.2027363621    0.6943093699    0.1867023190
H       -4.6827223404    0.8004718278    5.1101123330
H       -7.1416147813    1.1739988747    1.6273369984
H       -2.9001452897    0.5056848371   -0.1014660449
H        0.2248735451   -1.5604325006    0.3830328268
H       -1.6611156631    1.6539546209   -3.3742042267
H       -0.8919514563    0.0601596655   -3.5540326239
H        0.0776618931    1.4647860134   -3.0420556000
24   

C       -1.5991346561   -1.4130347078    2.2555269519
C       -3.6268552925    0.6896169194    3.1728114492
C       -5.1322617909    0.5678907268    1.2889344638
C       -4.7156456187    0.9246406825    4.0206967178
C       -6.2155478415    0.8044206994    2.1435724110
C       -3.8174139897    0.5104993856    1.7909041406
C       -6.0178715991    0.9845270765    3.5157023542
C       -2.7281872320    0.2210183677    0.8545898188
C       -0.6435336783   -0.9400534869    0.0486615206
C       -1.6954988140   -0.6509689387    1.0481759948
C       -0.7882334428    1.0453811807   -2.9354861737
N       -1.4895804047   -2.0363188913    3.2332359701
N       -0.3925519487   -0.3866132262   -1.1196731655
O       -1.1579386745    0.6991859330   -1.6006929522
Cl      -7.3721613763    1.2766804382    4.5786807574
H       -2.6321801276    0.6612555309    3.6027767917
H       -5.3177565521    0.4207909282    0.2309040815
H       -4.5506787549    1.0609524853    5.0831813338
H       -7.2220871740    0.8447637055    1.7438791596
H       -2.9196164253    0.5711512079   -0.1482333176
H        0.0483628298   -1.7316675266    0.3148026606
H       -1.4819903390    1.7935387373   -3.3290291252
H       -0.8201344052    0.1616270727   -3.5806519199
H        0.2245822039    1.4591384748   -2.9480124657
24   

C       -1.7518902114   -1.4519596616    2.1933338909
C       -3.5937309406    0.8741193985    3.1105012141
C       -5.1726508497    0.4069260850    1.3454396928
C       -4.6544892442    1.0786816309    4.0006077076
C       -6.2292762731    0.6134742639    2.2405873522
C       -3.8387049712    0.5525955059    1.7658020581
C       -5.9805551204    0.9541266084    3.5741055154
C       -2.7520809865    0.2687134559    0.8132435211
C       -0.7571609541   -1.0257606051   -0.0111797267
C       -1.7896336607   -0.6794248021    0.9890873290
C       -0.6707238904    1.1059920976   -2.8953722189
N       -1.6921779219   -2.0864187751    3.1680857491
N       -0.4551404386   -0.4583206703   -1.1602566603
O       -1.1274392507    0.7024057311   -1.6043903492
Cl      -7.3010481660    1.2098789243    4.6877787401
H       -2.5748347833    0.9683264553    3.4697472763
H       -5.3909424878    0.1284958831    0.3206155858
H       -4.4496262781    1.3308629205    5.0345347119
H       -7.2535814911    0.5035583049    1.9041733152
H       -2.9304432092    0.6459110909   -0.1827619442
H       -0.1317638028   -1.8762348950    0.2372135997
H       -1.2939909267    1.9230891909   -3.2692486289
H       -0.7284131764    0.2687177822   -3.5981182546
H        0.3663353449    1.4496756907   -2.8352063013
24   

C       -1.9064544147   -1.5585774214    2.0808454494
C       -3.5779648869    1.0390691576    3.0225240334
C       -5.1808993591    0.2010525089    1.4263857924
C       -4.6077798802    1.2362320344    3.9500054388
C       -6.2077312830    0.3995250840    2.3573966779
C       -3.8562014732    0.5427831302    1.7410110205
C       -5.9319118754    0.9239248037    3.6246645764
C       -2.7725416628    0.2719534532    0.7684737499
C       -0.8528971493   -1.1059750826   -0.0954966855
C       -1.8775702890   -0.7419811384    0.9056471864
C       -0.5605136692    1.1794753066   -2.8450271552
N       -1.9046076452   -2.2349449311    3.0288236415
N       -0.4972880329   -0.5024187666   -1.2101591673
O       -1.0895764851    0.7193034395   -1.6015144735
Cl      -7.2150539242    1.1732661860    4.7825854324
H       -2.5558530332    1.2725823634    3.2994455462
H       -5.4141080422   -0.2211788191    0.4554372936
H       -4.3803652531    1.6287873451    4.9342088989
H       -7.2284536932    0.1405190117    2.1015272853
H       -2.9162741787    0.7251297471   -0.2013494640
H       -0.2861365842   -2.0050608225    0.1201216576
H       -1.1225780639    2.0538205982   -3.1848876012
H       -0.6364365734    0.3945632233   -3.6041586531
H        0.4907037798    1.4583244151   -2.7247649717
24   

C       -2.1254355545   -1.7787413188    1.9040758623
C       -3.6097717481    1.2638003679    2.9019942715
C       -5.1495685352   -0.0083291454    1.5500893830
C       -4.6310385036    1.5135370174    3.8265901996
C       -6.1683166781    0.2432857976    2.4769984950
C       -3.8589542731    0.5002980384    1.7545949253
C       -5.9190986595    1.0069414738    3.6225058480
C       -2.7809228899    0.2383431729    0.7674248840
C       -0.8697147105   -1.1465563765   -0.1158554741
C       -1.9584923745   -0.8398663736    0.8366322714
C       -0.4845340353    1.2011771840   -2.8020511297
N       -2.2379955860   -2.5588347053    2.7613364693
N       -0.4638322231   -0.5048651674   -1.1915559148
O       -1.0908869454    0.6869361054   -1.6165698866
Cl      -7.1914176245    1.3206555804    4.7767143337
H       -2.6165053610    1.6608555913    3.0790604542
H       -5.3598256644   -0.6059865379    0.6702101342
H       -4.4262995836    2.1025341756    4.7129396575
H       -7.1614643812   -0.1577130180    2.3118088163
H       -2.6925992296    0.9817209047   -0.0099485689
H       -0.3055668098   -2.0481228519    0.0962716778
H       -0.9863671068    2.1251763093   -3.1026192539
H       -0.5678609349    0.4728126878   -3.6145549347
H        0.5734454443    1.4155948844   -2.6221529662
24   

C       -2.3063128051   -1.9825937377    1.6969338307
C       -3.6717559862    1.4761753899    2.7343939590
C       -5.0763208709   -0.1945997034    1.7163771697
C       -4.6955008565    1.7836851050    3.6387567605
C       -6.0987420617    0.1147398649    2.6213242058
C       -3.8383306949    0.4617330580    1.7819738871
C       -5.9162889179    1.1028816621    3.5939846497
C       -2.7806753832    0.1955036753    0.7805720432
C       -0.8901396213   -1.1814814426   -0.1501973608
C       -2.0252426290   -0.9344989748    0.7637023620
C       -0.4536914780    1.2974082421   -2.7065790574
N       -2.5170806181   -2.8521920920    2.4422370071
N       -0.4522222931   -0.4806237070   -1.1750461593
O       -1.1127323167    0.6970023249   -1.5916067024
Cl      -7.1909644627    1.4861305622    4.7243302153
H       -2.7365067849    2.0225700759    2.7816066160
H       -5.2405970139   -0.9579875050    0.9639048762
H       -4.5464903832    2.5572023735    4.3830343911
H       -7.0433786275   -0.4140361641    2.5709426803
H       -2.4321760945    1.0721404494    0.2547345279
H       -0.3299633283   -2.0915039484    0.0344537905
H       -0.9050214233    2.2697444968   -2.9228688190
H       -0.5509422191    0.6571378171   -3.5885381814
H        0.6087552998    1.4428809325   -2.4870861775
24   

C       -2.4040600710   -2.0905856063    1.5690699353
C       -3.7329980580    1.6025720742    2.5981895466
C       -4.9901181546   -0.3179667533    1.8742243134
C       -4.7551947915    1.9314187599    3.4966942017
C       -6.0107875368    0.0125297909    2.7735570694
C       -3.8186970429    0.4536530014    1.7981605649
C       -5.9006007506    1.1364968651    3.5973310105
C       -2.7702458919    0.1739658063    0.8026811958
C       -0.9662605799   -1.2431528553   -0.2355170074
C       -2.0825399778   -0.9979280298    0.7024905639
C       -0.3866812756    1.3836337124   -2.6097751320
N       -2.6545763681   -2.9976029212    2.2551702664
N       -0.4946393495   -0.5007030423   -1.2152858585
O       -1.0914582437    0.7353605683   -1.5509486850
Cl      -7.1731994976    1.5466620572    4.7205339212
H       -2.8596606801    2.2416824091    2.5326980529
H       -5.1095470033   -1.1859581675    1.2351589267
H       -4.6640970076    2.8115980738    4.1223905188
H       -6.8989151427   -0.6057362083    2.8329389260
H       -2.3566163711    1.0568516956    0.3384447462
H       -0.4541784363   -2.1915740251   -0.1157119716
H       -0.7796692999    2.3943714263   -2.7507929704
H       -0.5100701060    0.8218865765   -3.5405840841
H        0.6798109338    1.4502097673   -2.3723446702
24   

C       -2.4674508000   -2.1954160942    1.4683325256
C       -3.8029001234    1.6722982690    2.4542647514
C       -4.9153170383   -0.4207628781    2.0429124787
C       -4.8094846848    2.0285668783    3.3595846962
C       -5.9198482108   -0.0618972158    2.9496683176
C       -3.8191535004    0.4288226513    1.8019796723
C       -5.8739384077    1.1625572251    3.6207861371
C       -2.7753754639    0.1255000407    0.8199558773
C       -1.0705511674   -1.3174800280   -0.3452193604
C       -2.1478895431   -1.0738024070    0.6391497175
C       -0.3382547157    1.4421320163   -2.5168284192
N       -2.7180203150   -3.1270498398    2.1207358080
N       -0.5806524791   -0.5442229387   -1.2919582104
O       -1.1077104208    0.7433207671   -1.5381559432
Cl      -7.1273944094    1.6073715169    4.7522887204
H       -2.9935139969    2.3694379140    2.2688555603
H       -5.0068950091   -1.3671526845    1.5225730218
H       -4.7687183337    2.9859251942    3.8658964973
H       -6.7475301846   -0.7374336717    3.1319732893
H       -2.3362516880    1.0043680221    0.3731552950
H       -0.6050008113   -2.2957187046   -0.2951831692
H       -0.6819265541    2.4779515765   -2.5867016846
H       -0.4523112573    0.9636083167   -3.4941419030
H        0.7209927238    1.4404095331   -2.2406453097
24   

C       -2.2733664761   -2.2025439409    1.9976956063
C       -3.9751266326    1.6758229284    2.9373678851
C       -4.7587528948   -0.4140081401    2.0437311949
C       -5.2721269225    1.9787935707    3.3673287357
C       -6.0545339160   -0.1074420366    2.4770082177
C       -3.6820258164    0.4639956177    2.2867020419
C       -6.3232988950    1.0877281775    3.1465555711
C       -2.3100903529    0.2317137599    1.8448447027
C       -0.2624556117   -1.0790281955    1.1797554008
C       -1.6589286615   -0.9563694792    1.6571434247
C        1.3756146795    2.0112716587    0.3903627727
N       -2.7484740425   -3.2341064142    2.2561534666
N        0.5913893602   -0.1690783972    0.7575977258
O        0.2365216130    1.1950065317    0.6634035451
Cl      -7.9409373283    1.4658744511    3.6846552985
H       -3.1855955657    2.3944256390    3.1264776276
H       -4.6279528277   -1.3376238854    1.4949520991
H       -5.4689823018    2.9142079131    3.8780470523
H       -6.8641901378   -0.8020089941    2.2851886775
H       -1.7247145851    1.1367213710    1.8119100834
H        0.1377037190   -2.0870048641    1.1664375487
H        1.0986009912    3.0670590871    0.4575103690
H        1.7503330122    1.8058979074   -0.6168540031
H        2.1712757374    1.8094513522    1.1146120546
24   

C       -2.2782472951   -2.2651927942    1.8152362554
C       -3.9961507127    1.7217360526    2.7601749092
C       -4.7500853089   -0.5027056508    2.2505015989
C       -5.2772663346    2.0542220253    3.2139077875
C       -6.0301121614   -0.1642024538    2.7075638716
C       -3.6928792103    0.4336197520    2.2785337927
C       -6.3060763986    1.1132685649    3.1958310733
C       -2.3293197772    0.1864521292    1.8271843570
C       -0.2975234960   -1.0806368712    1.0395929672
C       -1.6857161834   -0.9904576275    1.5528313242
C        1.4136250804    2.0354501143    0.5651798205
N       -2.7204051195   -3.3251764072    2.0102038825
N        0.5684312451   -0.1497928924    0.6924482800
O        0.2520345542    1.2256115187    0.7470297411
Cl      -7.9050727810    1.5279494173    3.7619991634
H       -3.2268161685    2.4849487166    2.7944499588
H       -4.6440549258   -1.5015433928    1.8547572661
H       -5.4786293077    3.0523360513    3.5851868860
H       -6.8237640288   -0.9017854047    2.6762843568
H       -1.7504789430    1.0933484425    1.7792780200
H        0.0892598877   -2.0874531787    0.9246238533
H        1.1607202623    3.0866404909    0.7295389102
H        1.7966597647    1.9175515168   -0.4528934033
H        2.1943838375    1.7459964063    1.2757320492
24   

C       -2.3531074469   -2.2647335999    1.4858523338
C       -4.0373094384    1.7617564747    2.5824471078
C       -4.7032566264   -0.5445049875    2.4588031237
C       -5.3148299929    2.1102323099    3.0331907923
C       -5.9805343144   -0.1874771785    2.9107331571
C       -3.6934809692    0.4284330712    2.2824798444
C       -6.2995221843    1.1386860155    3.2019287008
C       -2.3348400776    0.1771583629    1.8211768063
C       -0.3013078205   -1.0635511907    1.0022401404
C       -1.7116454066   -0.9874404719    1.4588991893
C        1.5224258375    2.0303930197    0.8201361414
N       -2.8188352672   -3.3327162883    1.4860268068
N        0.6189148790   -0.1357264328    0.8273656902
O        0.3667873838    1.2318323961    1.0732181728
Cl      -7.8947674670    1.5722320002    3.7645485070
H       -3.3050315886    2.5529699286    2.4669005867
H       -4.5754186174   -1.5965051108    2.2663380881
H       -5.5477909081    3.1451325730    3.2553621713
H       -6.7376020318   -0.9528106862    3.0376425456
H       -1.7596485009    1.0851745251    1.7755303575
H        0.0535902493   -2.0602179623    0.7627187490
H        1.2987468968    3.0801713827    1.0297287271
H        1.8242080434    1.9352482914   -0.2274412176
H        2.3499509022    1.7104341629    1.4608107272
24   

C       -2.4824315351   -2.1770123802    1.1737178727
C       -4.1145119051    1.7727755041    2.3875968979
C       -4.6148144859   -0.5605952122    2.6728124839
C       -5.3951953347    2.1051082330    2.8426738827
C       -5.8960279208   -0.2215621532    3.1261276844
C       -3.6926259620    0.4337010917    2.2776639051
C       -6.3001580199    1.1109808008    3.2127176756
C       -2.3392001839    0.1908555698    1.7946307267
C       -0.3269549041   -1.0677016040    0.9458628894
C       -1.7482016734   -0.9634153387    1.3553504108
C        1.5909216094    1.9578494669    1.1246257547
N       -3.0384636329   -3.1878694680    1.0122442535
N        0.6528320310   -0.1863931310    0.9572303718
O        0.4713230263    1.1292447403    1.4378702221
Cl      -7.8985450216    1.5254540172    3.7807562166
H       -3.4449635158    2.5788366318    2.1091855968
H       -4.3805184824   -1.6144634984    2.6784925713
H       -5.6934773906    3.1448636176    2.9102224299
H       -6.5851750206   -1.0040213203    3.4223098926
H       -1.7675646509    1.1008327886    1.7234544127
H       -0.0243050114   -2.0375572693    0.5660204894
H        1.3724279771    2.9936411994    1.3991612712
H        1.8072131899    1.9160569943    0.0523694721
H        2.4721226847    1.6219581791    1.6793717348
24   

C       -2.5851631117   -2.0890485936    1.0446093882
C       -4.2092354127    1.7544030811    2.2265763662
C       -4.5040965444   -0.5452241232    2.8624679702
C       -5.4922898981    2.0505570248    2.7008482719
C       -5.7877706127   -0.2447408184    3.3343405686
C       -3.6928330396    0.4471586397    2.2741271506
C       -6.2962752933    1.0529110864    3.2539990774
C       -2.3362554356    0.2226941760    1.7834328810
C       -0.3847234481   -1.0485565378    0.8207124259
C       -1.7901876614   -0.9211735942    1.2695007613
C        1.6517198220    1.8665404974    1.2812205064
N       -3.2022739583   -3.0590752803    0.8578697165
N        0.6266518006   -0.2076484820    0.8931187472
O        0.4974072071    1.0575499558    1.5080612499
Cl      -7.8975729112    1.4229351715    3.8441137374
H       -3.6148194329    2.5570986411    1.8048438975
H       -4.1562846698   -1.5617429711    2.9930656109
H       -5.8716251555    3.0640046095    2.6407236897
H       -6.3952589039   -1.0264625648    3.7755075814
H       -1.7675644742    1.1348667749    1.6972048566
H       -0.1291678820   -1.9936907720    0.3540924898
H        1.4715126413    2.8798861012    1.6507964789
H        1.8770962262    1.9170472139    0.2111773168
H        2.5134731139    1.4448298338    1.8071746885
24   

C       -2.6698374958   -1.9958177317    0.9641827937
C       -4.2958687846    1.7215020318    2.0808166297
C       -4.3911863389   -0.4900534415    3.0226822231
C       -5.5808264653    1.9845237446    2.5701835058
C       -5.6765062518   -0.2242303705    3.5098470917
C       -3.6882884040    0.4696779680    2.2700833705
C       -6.2858994219    1.0123745676    3.2836440206
C       -2.3200100562    0.2621683884    1.7899872250
C       -0.4412418560   -1.0100359905    0.6954831417
C       -1.8252607721   -0.8645447917    1.1978699391
C        1.7263653126    1.7660703525    1.3752799015
N       -3.3322247063   -2.9347073558    0.7742131996
N        0.5987060128   -0.2085598960    0.7974821622
O        0.5243351583    1.0080223224    1.5120145555
Cl      -7.8896797348    1.3411424156    3.8911886866
H       -3.7727176795    2.4994553567    1.5362182033
H       -3.9453211057   -1.4520755357    3.2474208416
H       -6.0387786792    2.9515319264    2.3977882748
H       -6.2063247656   -0.9827810935    4.0742405971
H       -1.7477577435    1.1739634580    1.7124391565
H       -0.2332493864   -1.9300185415    0.1601676596
H        1.5916780021    2.7560913356    1.8198399156
H        1.9821565824    1.8867322941    0.3177845384
H        2.5498680933    1.2570879306    1.8851005066
24   

C       -2.7297967898   -1.8867782499    0.8732233583
C       -4.3885225077    1.6604323524    1.9415809388
C       -4.2807531528   -0.4013307579    3.1789364435
C       -5.6734152342    1.8945708043    2.4461072690
C       -5.5657328870   -0.1653194510    3.6818463491
C       -3.6862883266    0.4921697844    2.2723346694
C       -6.2764934574    0.9813835355    3.3158176141
C       -2.3051512318    0.3077274377    1.7967008725
C       -0.4901256194   -0.9235331914    0.5594632449
C       -1.8518796346   -0.7833601709    1.1180459170
C        1.7860826826    1.6999697211    1.4585524515
N       -3.4216441335   -2.8015741487    0.6715640409
N        0.5703897258   -0.1542363151    0.6901618039
O        0.5421647295    1.0009167754    1.5035041163
Cl      -7.8801817302    1.2738440902    3.9418927686
H       -3.9396292876    2.3897999668    1.2767568216
H       -3.7454534997   -1.2906338366    3.4930593926
H       -6.2106493165    2.7926721507    2.1644972128
H       -6.0168816917   -0.8756367649    4.3648277997
H       -1.7306394735    1.2207950050    1.7483269060
H       -0.3215834452   -1.8069771824   -0.0465105593
H        1.6935883066    2.6532311431    1.9864265623
H        2.0738316481    1.8980112385    0.4211702843
H        2.5683811774    1.1035656131    1.9376436769
24   

C       -2.8007515322   -1.7605432637    0.7368122020
C       -4.4771094865    1.5474808837    1.8092121588
C       -4.1805235947   -0.2847690089    3.3438705214
C       -5.7661812108    1.7590964564    2.3131954576
C       -5.4695552460   -0.0712253298    3.8466370182
C       -3.6799458227    0.5031366708    2.2969097657
C       -6.2762086841    0.9490824537    3.3327784871
C       -2.2906528192    0.3347038069    1.8132430725
C       -0.5331916099   -0.8457501335    0.4518998373
C       -1.8815513458   -0.7065345451    1.0410199660
C        1.8450861067    1.6040869752    1.5528920593
N       -3.5273040098   -2.6331746223    0.4784787548
N        0.5530369853   -0.1231371198    0.6285445782
O        0.5696557320    0.9631382810    1.5321105052
Cl      -7.8850422807    1.2130136511    3.9583644707
H       -4.0986145080    2.1929966600    1.0246625267
H       -3.5673507310   -1.0755301423    3.7618141000
H       -6.3795911135    2.5581644860    1.9135693900
H       -5.8502374901   -0.7002745097    4.6427886670
H       -1.6935346247    1.2340959299    1.8462942310
H       -0.4017080334   -1.6836205231   -0.2239084589
H        1.7920101508    2.5130765147    2.1585644195
H        2.1512728717    1.8744250249    0.5373697905
H        2.5944102897    0.9335933392    1.9844237060
24   

C       -2.8983910940   -1.5265932738    0.4991226945
C       -4.5765784570    1.3523062526    1.6566587170
C       -4.0787118184   -0.1187921083    3.5019260073
C       -5.8830010184    1.5075973476    2.1355822744
C       -5.3860503563    0.0386792529    3.9777311841
C       -3.6613991638    0.5378197939    2.3353332071
C       -6.2994047554    0.8536988724    3.3002346628
C       -2.2727705683    0.3747913830    1.8349642537
C       -0.5455175745   -0.8084476978    0.4324797182
C       -1.9098598969   -0.6016636496    0.9640328724
C        1.9172202731    1.5270361429    1.5970664599
N       -3.6811728224   -2.2930061361    0.1041833890
N        0.5710460068   -0.1460655900    0.6519708807
O        0.6060066261    0.9684491106    1.5184884537
Cl      -7.9290791393    1.0498664500    3.8961268157
H       -4.2729829768    1.8633037911    0.7498517806
H       -3.3858110427   -0.7580646071    4.0374661426
H       -6.5840338976    2.1375932657    1.6006914327
H       -5.6999603724   -0.4761514910    4.8781975181
H       -1.5686881140    1.0980589842    2.2169088343
H       -0.4341521420   -1.6410667657   -0.2533973508
H        1.9124635811    2.3869561058    2.2726897418
H        2.2466320754    1.8568489577    0.6069363923
H        2.6223972501    0.7817974288    1.9778271145
24   

C       -2.9617243041   -1.2820609040    0.2518502405
C       -4.6671478882    1.1338421619    1.5434659265
C       -3.9880707729    0.0947509093    3.6117530476
C       -5.9770469829    1.2348934451    2.0267904253
C       -5.2996703222    0.1975076355    4.0909937140
C       -3.6519687322    0.5852748686    2.3401144060
C       -6.3043064449    0.7732337834    3.3060174510
C       -2.2745298067    0.4163310155    1.8226651801
C       -0.5624649914   -0.7619184025    0.4047594258
C       -1.9398718424   -0.4912049836    0.8676235329
C        1.9235937828    1.4811332410    1.6919012929
N       -3.7735514361   -1.9347660446   -0.2687798277
N        0.5676238282   -0.1470461045    0.6840993839
O        0.5932270513    0.9934838077    1.5177961638
Cl      -7.9385634097    0.9027621560    3.9075458709
H       -4.4371118663    1.4832550915    0.5430074022
H       -3.2279773903   -0.3690926165    4.2302273505
H       -6.7505359352    1.6688932918    1.4040288943
H       -5.5467608157   -0.1765791606    5.0776222132
H       -1.5030886534    0.8321809364    2.4539472132
H       -0.4555657658   -1.5887548422   -0.2887699672
H        1.9295534280    2.2803140508    2.4383409521
H        2.3044790141    1.8768109658    0.7455179997
H        2.5821481620    0.6757922672    2.0322977305
24   

C       -2.9913810724   -1.1586971103    0.0725226007
C       -4.7464152350    0.9702636179    1.4980091847
C       -3.9207629511    0.2964010866    3.6637401211
C       -6.0380596168    1.0758136508    2.0270537188
C       -5.2149283188    0.4044711599    4.1870412127
C       -3.6664225934    0.5959790239    2.3136018339
C       -6.2838756146    0.7979056347    3.3754528276
C       -2.3050202075    0.4131539902    1.7825601359
C       -0.5940808054   -0.6712499974    0.2888030140
C       -1.9741429113   -0.4198921491    0.7565050256
C        1.9152451648    1.3973877710    1.8036995910
N       -3.8007017941   -1.7625861299   -0.5076172875
N        0.5415176091   -0.0974001127    0.6275245323
O        0.5760622940    0.9736788236    1.5484880433
Cl      -7.8967573669    0.9304700750    4.0315196956
H       -4.5853401408    1.1829675326    0.4468706035
H       -3.1115264008   -0.0254907390    4.3094630672
H       -6.8607838459    1.3703147773    1.3859909649
H       -5.3981582518    0.1760276687    5.2304491277
H       -1.5242476730    0.7475863740    2.4493859638
H       -0.4890828734   -1.4429015634   -0.4659513690
H        1.9222979419    2.1334227434    2.6124661167
H        2.3414194795    1.8535322836    0.9050734159
H        2.5345266201    0.5441838344    2.0982084260
24   

C       -2.9770078222   -1.1003985254   -0.0854596068
C       -4.8122866799    0.7848953612    1.4792181616
C       -3.8572551228    0.4598170298    3.6730562081
C       -6.0806845634    0.9158679509    2.0567958056
C       -5.1291051532    0.5930521710    4.2427307730
C       -3.6781661000    0.5576892843    2.2793291669
C       -6.2513771871    0.8217256111    3.4411491220
C       -2.3295670035    0.3707284678    1.7380345428
C       -0.5976771588   -0.5712989429    0.1708038725
C       -1.9841849656   -0.3786066222    0.6501094653
C        1.8973581795    1.3232070885    1.9184100788
N       -3.7658206579   -1.6876141450   -0.7094422242
N        0.5316994348   -0.0182478465    0.5619063609
O        0.5583884502    0.9665884811    1.5746039947
Cl      -7.8364482840    0.9845971250    4.1555730683
H       -4.7214403306    0.8750058330    0.4027973606
H       -3.0072028320    0.2716766278    4.3191925766
H       -6.9439765346    1.0911398056    1.4253878482
H       -5.2526365026    0.5142256110    5.3165215617
H       -1.5479825531    0.6771300984    2.4163652313
H       -0.4794237934   -1.2764654784   -0.6446467858
H        1.8920654354    1.9806656735    2.7922738837
H        2.3714349149    1.8470592061    1.0829635916
H        2.4810267303    0.4278305197    2.1548719955
24   

C       -2.9449408338   -1.0331584900   -0.2517154806
C       -4.8735734813    0.5957926808    1.4801078403
C       -3.7998424452    0.6202071600    3.6427355037
C       -6.1162139364    0.7589141831    2.1041532068
C       -5.0468107569    0.7847390370    4.2568403508
C       -3.6901476515    0.5129796329    2.2400943754
C       -6.2157133067    0.8519724258    3.4947682892
C       -2.3529707718    0.3251781605    1.6844087405
C       -0.5895820962   -0.4549118815    0.0608407073
C       -1.9843552283   -0.3311422658    0.5425998709
C        1.8802078364    1.2422477585    2.0311866673
N       -3.7035759583   -1.6059805772   -0.9247570408
N        0.5306883602    0.0743585185    0.5082032250
O        0.5458478265    0.9566391839    1.6113770007
Cl      -7.7698861652    1.0537774645    4.2649680416
H       -4.8581509607    0.5605597950    0.3981764595
H       -2.9147757028    0.5652116297    4.2665487863
H       -7.0158802945    0.8176472259    1.5025467202
H       -5.1136484749    0.8583208009    5.3360366631
H       -1.5724625497    0.6215935546    2.3669353294
H       -0.4532317494   -1.0826774907   -0.8130137342
H        1.8602119754    1.8130707059    2.9637643590
H        2.3954346216    1.8304437884    1.2659095751
H        2.4338173630    0.3129316998    2.1991583378
24   

C       -2.9245093952   -0.9226931292   -0.4107200573
C       -4.9311168858    0.3851077243    1.5176712383
C       -3.7690450264    0.7738806212    3.5951830499
C       -6.1519238694    0.5749409885    2.1768507475
C       -4.9945814217    0.9637748629    4.2435003414
C       -3.7078099340    0.4632814722    2.2183410361
C       -6.1969250895    0.8611092842    3.5425146727
C       -2.3785682327    0.2853814995    1.6476461740
C       -0.5906080120   -0.3393187472   -0.0166853930
C       -1.9932225468   -0.2726569041    0.4582696633
C        1.8705501320    1.1283947210    2.1417821615
N       -3.6482214497   -1.4592599089   -1.1491902757
N        0.5255949125    0.1450488198    0.4893679258
O        0.5383806269    0.9072022517    1.6785430184
Cl      -7.7249406517    1.0949609694    4.3548306430
H       -4.9871869245    0.2043989268    0.4541072184
H       -2.8598849462    0.8604863141    4.1795255956
H       -7.0789631755    0.5049957905    1.6195272935
H       -5.0175193644    1.1920368241    5.3027218310
H       -1.5997073616    0.5790213362    2.3313462302
H       -0.4410413326   -0.8782094836   -0.9460210157
H        1.8453665305    1.6131665108    3.1217503435
H        2.4085626138    1.7732960406    1.4405435222
H        2.4045653537    0.1772250096    2.2331880583
24   

C       -2.9225420978   -0.6403592266   -0.5814978231
C       -4.9507884503    0.1259394723    1.6127475333
C       -3.7594659596    0.9528811709    3.5348599623
C       -6.1598532584    0.3241801086    2.2912326910
C       -4.9729374698    1.1472143469    4.2037543001
C       -3.7113908060    0.4357510970    2.2202635520
C       -6.1845005597    0.8346830054    3.5889718616
C       -2.3866524486    0.2816717306    1.6344289465
C       -0.5832636590   -0.2680833660   -0.0392200696
C       -1.9963171791   -0.1813317332    0.4059734288
C        1.9221691682    0.8717541397    2.2748418390
N       -3.6274672375   -1.0267292716   -1.4248257126
N        0.5473854595    0.0612089886    0.5535442166
O        0.5830993669    0.6177296368    1.8510141962
Cl      -7.6984786231    1.0773797899    4.4246157207
H       -5.0484381153   -0.2715583873    0.6155931320
H       -2.8449212963    1.2118557922    4.0565144045
H       -7.0952969008    0.0778152223    1.8020874594
H       -4.9784041217    1.5451013534    5.2118465770
H       -1.6128979689    0.5903870231    2.3151608862
H       -0.4367193979   -0.6737069749   -1.0345014833
H        1.9165989647    1.2860410811    3.2869436027
H        2.4007724363    1.5893423873    1.6014033681
H        2.5003808874   -0.0573938236    2.2763657480
