27   

C        2.4506189132    1.0384551015   -0.4425080179
C        1.4321089051    0.2124065147   -0.9018015044
C        0.6507468138   -4.0845349519   -1.5569796350
C        2.2679077789    1.7788019180    0.7258694012
C        1.5952384577   -2.6943461989   -0.0816760992
C        0.4730904664   -2.8253622324   -0.8622485340
C        0.2555276587    0.1343142150   -0.1500407311
C        0.1294019548    0.9621626759    1.0040157680
C        1.8483866896   -4.5990340689   -1.1526394829
C       -0.7348448637   -1.9778032921   -1.0471709078
C       -2.1387383646   -0.1132652619   -0.2078834091
C       -2.1305665774    0.1539148538    1.3009402325
N        1.1316119304    1.7460412445    1.4294838570
N       -0.8344801995   -0.6707927126   -0.5504796652
O       -1.7234988655   -2.4605738505   -1.6018475186
O        2.4461246662   -3.7577187436   -0.2524637053
O       -1.0487630835    1.0080637703    1.7253669870
Br       2.5893399528   -6.2551855885   -1.7435557943
H        3.3854441955    1.1230547773   -0.9832670840
H        1.5511461930   -0.3481439944   -1.8238935698
H       -0.0421268610   -4.5380929687   -2.2590992046
H        3.0734191752    2.4149271083    1.0743090456
H        1.7960243328   -1.8831651275    0.6078646705
H       -2.9616193368   -0.7931851281   -0.4507102540
H       -2.3021480536    0.8194770601   -0.7575753590
H       -3.0821363998    0.6133137342    1.5856697201
H       -2.0541357146   -0.8002485882    1.8323620628
27   

C        2.4625381029    0.9273082746   -0.4423235134
C        1.4287623272    0.1123430723   -0.8860386333
C        0.7507309093   -3.9726019484   -1.7138090259
C        2.2843057695    1.7138249740    0.6955724776
C        1.4512520578   -2.7821613440    0.0481165459
C        0.4406688394   -2.8329804391   -0.8773501237
C        0.2380280714    0.0936246497   -0.1516757704
C        0.1224267609    0.9610249745    0.9746514350
C        1.9178737265   -4.5019968723   -1.2427765873
C       -0.7867114330   -2.0086418702   -1.0270931651
C       -2.1654580121   -0.1158250696   -0.2029898935
C       -2.1474729909    0.1956613436    1.2965831611
N        1.1392711618    1.7340417402    1.3851792351
N       -0.8695492545   -0.6974443163   -0.5386910924
O       -1.7945065342   -2.5112702930   -1.5253022508
O        2.3689761139   -3.7795783002   -0.1690022666
O       -1.0580808238    1.0552798620    1.6869811669
Br       2.7963984419   -6.0364868518   -1.9599942429
H        3.4060222627    0.9676467473   -0.9730617468
H        1.5487269504   -0.4814976766   -1.7867758624
H        0.1602426378   -4.3455015337   -2.5448319533
H        3.1015329662    2.3418180644    1.0312360700
H        1.5209696364   -2.0669475296    0.8600266782
H       -2.9972468402   -0.7933817013   -0.4205733881
H       -2.3226530260    0.8022080605   -0.7785900357
H       -3.0941601956    0.6700625014    1.5727764127
H       -2.0739404851   -0.7425127128    1.8561543642
27   

C        2.4470795053    0.8782834177   -0.4665481656
C        1.4035747127    0.0672174737   -0.8935244520
C        0.8634447565   -3.7965079840   -1.8655006315
C        2.2775245322    1.6924398298    0.6524798242
C        1.3265356065   -2.8657767764    0.1195690725
C        0.4210063895   -2.8098804713   -0.9054660756
C        0.2096545191    0.0805656373   -0.1629247470
C        0.1064663084    0.9720823766    0.9462146576
C        2.0055161006   -4.3484613280   -1.3587813333
C       -0.8359345832   -2.0217124363   -1.0067229410
C       -2.1996074993   -0.1118037659   -0.1918129649
C       -2.1645139720    0.2277145454    1.3007897630
N        1.1323535310    1.7419415474    1.3401326362
N       -0.9099663880   -0.7043723816   -0.5339465462
O       -1.8608175294   -2.5567581415   -1.4279679523
O        2.3132485479   -3.7818239709   -0.1485191317
O       -1.0702109305    1.0935684107    1.6604928158
Br       3.0255155203   -5.7250825095   -2.1985586144
H        3.3915908665    0.8939693484   -0.9967170326
H        1.5208228158   -0.5451626008   -1.7817869516
H        0.3735710581   -4.0632456300   -2.7964711508
H        3.1022218531    2.3178580197    0.9743837444
H        1.2724590175   -2.2769969732    1.0287407478
H       -3.0369410065   -0.7892048501   -0.3871801952
H       -2.3604599033    0.7961498591   -0.7821707844
H       -3.1073198956    0.7088355904    1.5785877562
H       -2.0853110169   -0.6994995026    1.8775387576
27   

C        2.4552354109    0.7963860123   -0.4557069993
C        1.3995300264   -0.0118086232   -0.8566635741
C        0.9701238334   -3.6484001670   -1.8629586271
C        2.2943433238    1.6574675554    0.6283378671
C        1.1914135193   -3.0201275735    0.2780025072
C        0.3974508850   -2.8307478625   -0.8175879479
C        0.2004764088    0.0512890493   -0.1359630640
C        0.1093829981    0.9873082940    0.9376260020
C        2.0767176569   -4.2423614235   -1.3251232527
C       -0.8776963695   -2.0641840818   -0.8981090442
C       -2.2139324232   -0.1033387539   -0.1589546680
C       -2.1722697768    0.2925489922    1.3190308876
N        1.1465597201    1.7548656930    1.3061311493
N       -0.9336735137   -0.7269789525   -0.4819238034
O       -1.9176971618   -2.6248877223   -1.2379990768
O        2.2370263185   -3.8594521385   -0.0176979662
O       -1.0668423901    1.1578288833    1.6424468987
Br       3.2323257475   -5.4479879108   -2.2479312979
H        3.4027346027    0.7733192429   -0.9801733353
H        1.5139816209   -0.6572711708   -1.7209417617
H        0.5883333285   -3.7840657919   -2.8695482347
H        3.1284826929    2.2806587741    0.9295422685
H        1.0189651220   -2.5749888115    1.2517752381
H       -3.0620770442   -0.7742834207   -0.3278017101
H       -2.3628151749    0.7838885687   -0.7829892859
H       -3.1082809974    0.7963433593    1.5790041068
H       -2.1036256208   -0.6124600201    1.9312253222
27   

C        2.4392080116    0.7515257303   -0.4962581880
C        1.3671904696   -0.0478638751   -0.8706580659
C        1.0042181966   -3.4868660704   -1.8597472240
C        2.3018963461    1.6374891613    0.5705901476
C        1.0684362295   -3.1764234084    0.3602748619
C        0.3463587292   -2.8394739172   -0.7468406872
C        0.1758631033    0.0483561878   -0.1412410184
C        0.1099774152    1.0081943162    0.9134690652
C        2.0872964773   -4.1370613806   -1.3391411937
C       -0.9420306558   -2.0837557990   -0.7849409179
C       -2.2392644109   -0.0645924419   -0.1387277086
C       -2.1798992039    0.3608085312    1.3300080303
N        1.1619738393    1.7677976589    1.2558367270
N       -0.9738260811   -0.7212094811   -0.4560734788
O       -2.0006725493   -2.6673462019   -1.0039991188
O        2.1514069973   -3.9483408051    0.0180544563
O       -1.0562921769    1.2122510760    1.6262010159
Br       3.3312785793   -5.1751638348   -2.3467242428
H        3.3814670724    0.7019212026   -1.0281758278
H        1.4642913429   -0.7108601888   -1.7227754202
H        0.6942325105   -3.4796851491   -2.8994225760
H        3.1485477829    2.2533680887    0.8511953841
H        0.8205254521   -2.8811705889    1.3738287095
H       -3.1035581386   -0.7184720429   -0.2913379260
H       -2.3725518988    0.8129279964   -0.7797998937
H       -3.1043777341    0.8876391806    1.5854550442
H       -2.1236073842   -0.5323218170    1.9606121950
27   

C        2.4465561372    0.6688630501   -0.5517152722
C        1.3511234235   -0.1112434312   -0.8984794409
C        0.9548068245   -3.3909698334   -1.8470172774
C        2.3461512893    1.5711109639    0.5054908529
C        0.9707426780   -3.3846212515    0.3945674313
C        0.2776698084   -2.8912907385   -0.6699280488
C        0.1750927934    0.0193803063   -0.1516141804
C        0.1468945752    0.9953813904    0.8905034182
C        2.0216561851   -4.1159611963   -1.3966901695
C       -1.0047449091   -2.1208092699   -0.6272724720
C       -2.2360567559   -0.0230435728   -0.1241256956
C       -2.1584525655    0.4214744577    1.3376304964
N        1.2203043477    1.7364853031    1.2059530291
N       -0.9958100678   -0.7315595069   -0.4305167908
O       -2.0853172415   -2.7023094449   -0.6733534962
O        2.0556364136   -4.1143990491   -0.0257294709
O       -1.0039332225    1.2369843271    1.6171841809
Br       3.2829440545   -5.0160428196   -2.5099042472
H        3.3788899140    0.5914906686   -1.0975297780
H        1.4189024237   -0.7841457893   -1.7440807585
H        0.6702494734   -3.2400671881   -2.8829320578
H        3.2106008157    2.1713404212    0.7649044028
H        0.7011920320   -3.2284477343    1.4332201586
H       -3.1258828782   -0.6427690867   -0.2723213095
H       -2.3346755611    0.8498271729   -0.7777471683
H       -3.0627619653    0.9852354711    1.5862591182
H       -2.1329600519   -0.4636348791    1.9814326640
27   

C        2.2240205366    1.6210837614   -0.0995978538
C        1.5560584969    0.4458027824    0.2187981328
C        1.0652362804   -1.6666911156   -2.3015765986
C        1.4983155744    2.7432712530   -0.4953599142
C        2.0106590930   -2.8991593359   -0.6836494761
C        0.8692632937   -2.2134426087   -0.9767355599
C        0.1611887169    0.4211442696    0.1095311343
C       -0.5055612948    1.6255129897   -0.2674128211
C        2.3086711218   -2.0668805055   -2.7008763356
C       -0.3122911924   -2.0128148807   -0.0843297102
C       -1.9322639440   -0.4354659842    0.9457382199
C       -2.6275771436    0.4885002531   -0.0569655795
N        0.1640181716    2.7485239880   -0.5704379081
N       -0.6057147984   -0.7331354747    0.4114924130
O       -1.1123461569   -2.9198301643    0.1307817775
O        2.9051868654   -2.8219532631   -1.7225711744
O       -1.8850673576    1.6951898841   -0.3203017223
Br       3.1144929502   -1.6318332755   -4.3745055766
H        3.3038200860    1.6806845156   -0.0396355643
H        2.1162866229   -0.4179297060    0.5551537346
H        0.3718158834   -1.0549882224   -2.8691547792
H        2.0345036584    3.6520914538   -0.7431684162
H        2.1934130853   -3.4260274709    0.2463576604
H       -1.8384678288    0.0639451965    1.9155273332
H       -2.5392600851   -1.3333820795    1.0974658823
H       -2.7755728519   -0.0502034342   -0.9986131530
H       -3.6157900996    0.7547197270    0.3301856250
27   

C        2.1173029348    1.7050625893   -0.3748034382
C        1.4903543778    0.5031898476   -0.0732535106
C        0.8148837646   -1.3976079040   -2.5511661964
C        1.3514450979    2.8494500153   -0.5891034755
C        1.7751605004   -2.9532407808   -1.2477093795
C        0.6989997579   -2.1155184366   -1.2998871418
C        0.0917570397    0.4759257251   -0.0152744044
C       -0.6127789137    1.7014042507   -0.2121407919
C        1.9528090817   -1.8571706909   -3.1510759524
C       -0.3403489719   -1.9698123172   -0.2406036901
C       -1.8971445027   -0.4665142422    0.9828957197
C       -2.6960683517    0.5332212885    0.1431452457
N        0.0177926702    2.8499434572   -0.5032465144
N       -0.6327335567   -0.7049038241    0.2915096751
O       -1.0294220677   -2.9255795242    0.1109736875
O        2.5568739598   -2.8085629190   -2.3677231791
O       -1.9880608025    1.7652569519   -0.0934537287
Br       2.6209585504   -1.2574513433   -4.8343791203
H        3.1966124173    1.7676527844   -0.4404692111
H        2.0863061986   -0.3807489657    0.1212017131
H        0.1420743071   -0.6402032727   -2.9397934775
H        1.8557167319    3.7792614870   -0.8258077736
H        1.9889508802   -3.6348972972   -0.4317504811
H       -1.7042725617   -0.0535001150    1.9783189546
H       -2.4858915339   -1.3799377925    1.1124043375
H       -2.9430698855    0.0760006324   -0.8205123351
H       -3.6377078542    0.7552771398    0.6544113696
27   

C        2.0315359479    2.2310343035    0.4006912284
C        1.5858826874    0.9195288312    0.4996540944
C        1.8425916198   -0.8168882878   -2.0658996086
C        1.1289373202    3.2459584797    0.0884212227
C        2.6322404356   -2.5340160297   -0.8506429574
C        1.5436619145   -1.7172730717   -0.9719578377
C        0.2325419243    0.6545391225    0.2576284724
C       -0.6295004963    1.7574749279   -0.0188934685
C        3.0906301587   -1.1541583298   -2.5073183450
C        0.3290972189   -1.8118124319   -0.1172267022
C       -1.7098575733   -0.6947645786    0.7615248893
C       -2.4927507617    0.2302917206   -0.1740725237
N       -0.1725416975    3.0161935368   -0.1106710470
N       -0.3103069993   -0.6529287309    0.3469618818
O       -0.1856667723   -2.9017984157    0.1307515879
O        3.5930750137   -2.1997598221   -1.7737867051
O       -1.9892628079    1.5798588352   -0.1882292385
Br       4.0138337809   -0.2930868526   -3.9376860525
H        3.0725764573    2.4781813273    0.5689657824
H        2.2809548096    0.1320096480    0.7682685309
H        1.2111836371   -0.0279773850   -2.4615668652
H        1.4929436712    4.2640816674    0.0123127344
H        2.7268811244   -3.3348185243   -0.1252395487
H       -1.8018342149   -0.3506414757    1.7967880566
H       -2.1336408372   -1.7023803929    0.7063510992
H       -2.4535474141   -0.1719415771   -1.1915871571
H       -3.5423067117    0.2441161883    0.1352159152
27   

C        2.2407970142    1.7141411079    0.3008470866
C        1.5917992140    0.5141745534    0.5608382407
C        1.9438691211   -1.6859268199   -1.5296255858
C        1.5484139831    2.7548373793   -0.3159788888
C        2.0959533606   -3.4443754315   -0.1382302824
C        1.3037925951   -2.3655411756   -0.4213422423
C        0.2545355242    0.3814400830    0.1691512737
C       -0.3901433883    1.5095468311   -0.4197483166
C        3.0791462992   -2.3931809749   -1.8074926072
C        0.0222769917   -2.1031460243    0.2842891723
C       -1.9146146109   -0.5844937111    0.6208931598
C       -2.4339937907    0.2324131648   -0.5657673248
N        0.2613123274    2.6575850179   -0.6631140846
N       -0.4869406137   -0.8026095404    0.4084435410
O       -0.6524201854   -3.0356222783    0.7230644259
O        3.1944257445   -3.4684641752   -0.9628946079
O       -1.7313806359    1.4765962806   -0.7503357460
Br       4.3305497622   -1.9554109903   -3.1794492482
H        3.2786156522    1.8555098970    0.5767655542
H        2.1186673965   -0.2900639002    1.0628293705
H        1.5995108907   -0.7973755826   -2.0488192861
H        2.0698072019    3.6840495470   -0.5149280345
H        1.8861493805   -4.1824730006    0.6285612738
H       -2.0728876664   -0.0366448113    1.5555039699
H       -2.4755575023   -1.5223504313    0.6831640512
H       -2.3409479389   -0.3636723094   -1.4793742463
H       -3.4974701914    0.4418660968   -0.4154425414
27   

C        2.0926423471    2.0891501570    0.5865043327
C        1.5539472442    0.8216008679    0.7655932692
C        2.1850588308   -1.2428651914   -1.3676160245
C        1.3159851488    3.0957884604    0.0147269106
C        2.2635820606   -3.2101070061   -0.2842429381
C        1.5226408873   -2.0611816056   -0.3701565069
C        0.2414867417    0.5898443274    0.3387140597
C       -0.4972783943    1.6862620597   -0.1967447926
C        3.2849546975   -1.9452422936   -1.7715042074
C        0.2394416862   -1.9101261312    0.3632556101
C       -1.8340294768   -0.5905727627    0.7101499112
C       -2.4167700068    0.2410854882   -0.4366563650
N        0.0487122192    2.9010992686   -0.3631314434
N       -0.3913238599   -0.6665129427    0.5041142579
O       -0.3231616892   -2.8980220499    0.8392607729
O        3.3567342140   -3.1466152782   -1.1136798639
O       -1.8268341612    1.5508830075   -0.5479457867
Br       4.5394443552   -1.3519275289   -3.0808666422
H        3.1082121394    2.3093611751    0.8919756735
H        2.1439067612    0.0403270457    1.2330862747
H        1.8760939035   -0.2741072469   -1.7461777135
H        1.7516118662    4.0789837787   -0.1209806124
H        2.0210908602   -4.0599200594    0.3450852469
H       -2.0490551175   -0.1132976234    1.6717485793
H       -2.3055134338   -1.5785461251    0.7113689643
H       -2.2655421075   -0.2936844374   -1.3799157258
H       -3.4956198440    0.3468668370   -0.2869437985
27   

C        2.3488991050    1.8457772375   -0.4836965239
C        1.5361548300    0.7898999971   -0.8766161973
C        2.1647753804   -1.9203341256    0.3418845420
C        1.9240159736    2.7056981171    0.5286540338
C        1.3887264879   -3.6127286648   -0.9143624988
C        1.0961087892   -2.3214185667   -0.5555801647
C        0.3162696823    0.6104557394   -0.2163925028
C       -0.0637480468    1.5625891679    0.7747090736
C        3.0297428868   -2.9755559703    0.4082425306
C       -0.2114801005   -1.7240833468   -0.9375628832
C       -1.9885519839   -0.0786275423   -0.4037700924
C       -2.1674099508    0.4045237413    1.0394025393
N        0.7427921657    2.5713461577    1.1399370139
N       -0.5811630327   -0.4230803531   -0.5727724858
O       -1.0283310265   -2.3917337384   -1.5756158390
O        2.5799663085   -4.0157354390   -0.3625646653
O       -1.3018421023    1.5036916212    1.3860945414
Br       4.6254812950   -3.0154529811    1.4535219846
H        3.3076472450    2.0156126231   -0.9581888507
H        1.8456492170    0.1284452991   -1.6793384202
H        2.2682982747   -0.9926809910    0.8936643407
H        2.5708665936    3.5227549567    0.8267585118
H        0.7654246083   -4.2424223864   -1.5406082006
H       -2.6484087452   -0.9339933223   -0.5811638026
H       -2.2663323205    0.7136174263   -1.1065840684
H       -3.2081721617    0.7092892018    1.1859945256
H       -1.9683279860   -0.4274243184    1.7226342988
27   

C        2.3750418826    1.7406368649   -0.4535417148
C        1.5419437263    0.6953406680   -0.8306744640
C        2.0452116019   -1.9952590265    0.4807015643
C        1.9546696975    2.6414110889    0.5238574362
C        1.4925105914   -3.5225807487   -1.0722985548
C        1.0552101383   -2.3484953684   -0.5185140411
C        0.3036121263    0.5673047487   -0.1913962771
C       -0.0663401035    1.5570286834    0.7668551952
C        3.0110178172   -2.9596166791    0.4217926277
C       -0.2666874435   -1.7698734242   -0.8720753403
C       -2.0168928900   -0.0814905561   -0.3750847841
C       -2.1926057365    0.4486003257    1.0512789817
N        0.7597168959    2.5554911566    1.1166064546
N       -0.6150801478   -0.4557535463   -0.5315164442
O       -1.1103521121   -2.4572747123   -1.4506326085
O        2.6969816830   -3.8974461548   -0.5285048349
O       -1.3122515304    1.5453836663    1.3643032697
Br       4.5715618663   -3.0107683866    1.5182782319
H        3.3466580152    1.8705467162   -0.9142720373
H        1.8519014925    0.0057078955   -1.6086927054
H        2.0316467401   -1.1509258749    1.1620129423
H        2.6173658760    3.4502562645    0.8092738164
H        0.9610806760   -4.0872184222   -1.8311160877
H       -2.6921435692   -0.9295610362   -0.5274296491
H       -2.2796177355    0.6934956633   -1.1024574208
H       -3.2290680214    0.7732384263    1.1849956567
H       -2.0073809834   -0.3641810740    1.7609680256
27   

C        2.4641030734    1.3595792244   -0.3494424715
C        1.5432632246    0.4007343377   -0.7511627980
C        1.7875277611   -2.3404898551    0.5763701183
C        2.1236783379    2.2682988174    0.6511806751
C        1.3228314152   -3.6176222767   -1.2136926912
C        0.8356822240   -2.5612609668   -0.4937184315
C        0.2975868537    0.3649067561   -0.1137180452
C        0.0164717676    1.3570244501    0.8720467451
C        2.7806281243   -3.2620101289    0.4007785462
C       -0.4657813573   -1.9123995073   -0.8005690969
C       -2.0704842948   -0.0854253070   -0.2923924974
C       -2.1913571774    0.4195548943    1.1483136995
N        0.9259129747    2.2712827794    1.2444214732
N       -0.7053754339   -0.5706789843   -0.4712070046
O       -1.3866784194   -2.5618310757   -1.2979353571
O        2.5189818020   -4.0481932340   -0.6929944722
O       -1.2228423185    1.4338658782    1.4782488913
Br       4.3163010745   -3.4394944797    1.5188686709
H        3.4437470874    1.4154725505   -0.8080895479
H        1.7940349825   -0.2928238044   -1.5464425125
H        1.7327994299   -1.6007308315    1.3684746828
H        2.8544287166    3.0086556121    0.9557177340
H        0.8325527148   -4.0586551043   -2.0750241619
H       -2.8171814864   -0.8676662426   -0.4616694393
H       -2.2719917786    0.7282949103   -0.9966221537
H       -3.1970112273    0.8231053466    1.3008196844
H       -2.0664354631   -0.4236809343    1.8353361066
27   

C        2.4178633626    1.6201613749   -0.2759094408
C        1.5957090266    0.5608860857   -0.6369642367
C        1.8398091825   -2.0311722374    1.0672401553
C        1.9366606216    2.6071445845    0.5822490510
C        1.8319544537   -3.2759625070   -0.8033629504
C        1.0768531548   -2.3677677302   -0.1165150068
C        0.3025019407    0.5074063559   -0.1028306534
C       -0.1220247311    1.5791603186    0.7382125074
C        2.9972232562   -2.7530512625    0.9931171366
C       -0.2577527185   -1.8825736840   -0.5610110395
C       -2.0114789680   -0.1283521913   -0.4042284067
C       -2.2806961506    0.5207470397    0.9559749364
N        0.6937681578    2.5909950268    1.0733343492
N       -0.6080015046   -0.5310336920   -0.4270951526
O       -1.1085647162   -2.6669856154   -0.9798521902
O        3.0138857466   -3.5179145633   -0.1463982140
O       -1.4101700792    1.6339207085    1.2349620764
Br       4.4002380756   -2.7047524024    2.2849825126
H        3.4287920824    1.6938609758   -0.6576875772
H        1.9591128993   -0.1933761758   -1.3257398018
H        1.5596122734   -1.3432943678    1.8583879120
H        2.5915554535    3.4261949703    0.8563579491
H        1.5406995637   -3.7409715731   -1.7389839177
H       -2.6925253153   -0.9746514033   -0.5380279316
H       -2.2064652406    0.5873365346   -1.2094672357
H       -3.3194633352    0.8633847583    0.9875470244
H       -2.1566059514   -0.2303426569    1.7428068363
27   

C        2.4516105708    1.2269469633    0.3477018735
C        1.5720376839    0.2347688715   -0.0651345688
C        0.9878009209   -2.0970262107    2.0393593037
C        1.9573605507    2.3801776866    0.9542269891
C        1.4097770378   -3.4085873868    0.2666026006
C        0.5313179284   -2.4659790496    0.7164593656
C        0.2031571789    0.4185029034    0.1641533352
C       -0.2197467487    1.6452057636    0.7585086076
C        2.1062320103   -2.8436384680    2.2794224044
C       -0.6277457944   -1.9230713458   -0.0486464584
C       -2.0653437672    0.0354712710   -0.5756972154
C       -2.5120987500    0.9020490838    0.6042981408
N        0.6517297109    2.5882524191    1.1492709164
N       -0.7678289597   -0.5386674902   -0.2287236042
O       -1.5308834224   -2.6584041054   -0.4430041028
O        2.3829165354   -3.6514507962    1.2049268724
O       -1.5595749798    1.9278164590    0.9444144228
Br       3.1486160420   -2.7706619295    3.8755758787
H        3.5192033310    1.1199216548    0.1996151851
H        1.9531035117   -0.6496264234   -0.5620886459
H        0.5419231128   -1.3699402033    2.7101098966
H        2.6570371024    3.1442239861    1.2729029750
H        1.3527847647   -3.8948910871   -0.7010802198
H       -2.8255550398   -0.7272322099   -0.7708899616
H       -1.9714563862    0.6474435547   -1.4786493568
H       -3.4696429251    1.3713995312    0.3589339746
H       -2.6717752365    0.2629741992    1.4788192441
27   

C        2.4934896952    1.2183873220   -0.1360594989
C        1.5545663277    0.2843757759   -0.5542893329
C        1.2652668666   -2.4187199742    1.3542942698
C        2.1119896593    2.2426198465    0.7288447090
C        1.5458415046   -3.2071001642   -0.7267317654
C        0.6610800771   -2.5118927374    0.0432518535
C        0.2459975329    0.3919944817   -0.0703569230
C       -0.0677839642    1.4926068463    0.7824300735
C        2.4654921827   -3.0652540622    1.2695202660
C       -0.6336252736   -1.9108334344   -0.3984702757
C       -2.1095424755    0.0860022770   -0.4850259257
C       -2.3600593345    0.7331937128    0.8791521820
N        0.8589570945    2.3816940450    1.1722595396
N       -0.7792433835   -0.5156278142   -0.4399065725
O       -1.6230648122   -2.6072845595   -0.6105624752
O        2.6567770211   -3.5544355764    0.0017614531
O       -1.3566071747    1.7044683235    1.2349960397
Br       3.7112259106   -3.2545509588    2.7019857372
H        3.5201286581    1.1659028948   -0.4771923073
H        1.8422354756   -0.4947352634   -1.2494972200
H        0.8573703729   -1.9293281502    2.2325196086
H        2.8571543740    2.9620234350    1.0482935468
H        1.3991080287   -3.4454008293   -1.7743896197
H       -2.8978377817   -0.6437599754   -0.6942120549
H       -2.1476294438    0.8441005177   -1.2740411676
H       -3.3399557904    1.2200083591    0.8676945636
H       -2.3874842167   -0.0469636553    1.6468887904
27   

C        2.3742122555    1.0106747454    0.2920804930
C        1.5191975778   -0.0444866926    0.5825434692
C        1.8559348467   -3.4650504466    0.5832674219
C        1.8987091232    2.1103275129   -0.4195928174
C        1.3593169734   -2.8847797976   -1.5242594599
C        0.8600787442   -2.8361563108   -0.2572634838
C        0.1981277139    0.0214555734    0.1260966396
C       -0.2157833755    1.2020745400   -0.5625221349
C        2.8900181312   -3.8100839193   -0.2402613197
C       -0.5006478667   -2.3680094688    0.1542464646
C       -2.1201894223   -0.5190829120    0.5126478294
C       -2.4467226736    0.2890162145   -0.7446125194
N        0.6311564684    2.2078145997   -0.8310961332
N       -0.7493811742   -1.0047874745    0.3746107681
O       -1.4402620728   -3.1560445216    0.2176174318
O        2.6099445577   -3.4522757130   -1.5341795760
O       -1.5249907313    1.3729224076   -0.9719475823
Br       4.4942527976   -4.6776893110    0.3200346143
H        3.4069770200    0.9948964947    0.6181084777
H        1.8800193159   -0.8806626112    1.1682503307
H        1.7953671065   -3.6463631414    1.6511255366
H        2.5790323550    2.9248526952   -0.6399400454
H        0.8394744106   -2.5295722614   -2.4071176299
H       -2.1995454057    0.1175938502    1.3998881901
H       -2.8472732306   -1.3290417682    0.6272264982
H       -2.4335759383   -0.3771047519   -1.6133240901
H       -3.4591914476    0.6940967674   -0.6538668027
27   

C        2.3640861793    1.0448700662    0.2493010923
C        1.5163347129   -0.0099384327    0.5608950638
C        1.8408211582   -3.5912257332    0.5773945740
C        1.8794756570    2.1298610614   -0.4786093464
C        1.3704276319   -2.7278819763   -1.4382702664
C        0.8732864465   -2.8208125590   -0.1714222059
C        0.1919332477    0.0420693310    0.1093604454
C       -0.2307596121    1.2075533736   -0.5984976365
C        2.8581255308   -3.8750802467   -0.2894334235
C       -0.4637155455   -2.3542933068    0.3054128386
C       -2.1280735306   -0.5183270977    0.4965350160
C       -2.4493903261    0.2683926374   -0.7760663223
N        0.6099638245    2.2127511621   -0.8877782900
N       -0.7480137744   -0.9838417599    0.3872984186
O       -1.3606336980   -3.1623726954    0.5332638816
O        2.5947345113   -3.3436158844   -1.5263468842
O       -1.5415671925    1.3625871602   -1.0077881983
Br       4.4204060311   -4.8803354849    0.1454358416
H        3.3981572406    1.0402324658    0.5716750798
H        1.8854289875   -0.8363674928    1.1574273438
H        1.7704086131   -3.9031922594    1.6141121747
H        2.5543701445    2.9444611920   -0.7148471092
H        0.8674280385   -2.2400516163   -2.2658802005
H       -2.2331947767    0.1269821505    1.3747735410
H       -2.8429881541   -1.3400511046    0.6038731674
H       -2.4145677025   -0.4089090552   -1.6354583192
H       -3.4690110792    0.6592399186   -0.7047904851
27   

C        2.3411770758    1.1573238071    0.2379919344
C        1.5410756973    0.0701515504    0.5641010589
C        1.9141765352   -3.7086748952    0.5202844123
C        1.8076112558    2.2122530600   -0.5002014560
C        1.5425922255   -2.5238128568   -1.3466547309
C        0.9999725157   -2.7914229945   -0.1217265165
C        0.2141482222    0.0608029742    0.1165520533
C       -0.2613841048    1.1984980956   -0.6021550841
C        2.9465542698   -3.8990898178   -0.3540976823
C       -0.3251580783   -2.3569610362    0.4030609338
C       -2.0785914985   -0.5993991248    0.5181975351
C       -2.4360107921    0.1595030876   -0.7621256006
N        0.5345117943    2.2351590473   -0.9063941196
N       -0.6784768196   -1.0006713829    0.4135102725
O       -1.1619095309   -3.1917576508    0.7413747121
O        2.7439513006   -3.1709530737   -1.4988497687
O       -1.5791743108    1.2913070737   -1.0073346710
Br       4.4527911227   -5.0284205398   -0.0436073239
H        3.3753630505    1.2014515545    0.5571545746
H        1.9469045309   -0.7350754607    1.1671011478
H        1.7973556016   -4.1734971879    1.4937752620
H        2.4457033369    3.0527613636   -0.7477161753
H        1.0865963280   -1.8920007985   -2.1009768957
H       -2.2152781062    0.0476594367    1.3907738005
H       -2.7529882103   -1.4542533007    0.6297299963
H       -2.3710882194   -0.5242551534   -1.6146481086
H       -3.4724002103    0.5041233571   -0.6939609879
27   

C        2.3234814035    1.2304483393    0.2731011976
C        1.5415233776    0.1364713611    0.6206531742
C        1.8347788492   -3.8714454193    0.4977177798
C        1.7807265998    2.2482134603   -0.5100937621
C        1.6851612884   -2.3900706727   -1.1768883568
C        1.0395456683   -2.7889220987   -0.0376400848
C        0.2248537832    0.0837923075    0.1484198863
C       -0.2636637168    1.1860235290   -0.6145206819
C        2.9018898110   -4.0229637498   -0.3413634563
C       -0.2665460633   -2.3354370951    0.5099079826
C       -2.0557939210   -0.6123985834    0.5438522846
C       -2.4143380704    0.0956355191   -0.7655357528
N        0.5151967595    2.2289783166   -0.9399741873
N       -0.6470592525   -0.9872820956    0.4644858110
O       -1.0741326823   -3.1634821626    0.9297254437
O        2.8352101392   -3.1152171549   -1.3670609553
O       -1.5765745922    1.2348801387   -1.0427737234
Br       4.2847411566   -5.3213623498   -0.1349795652
H        3.3501808858    1.3090754361    0.6094526002
H        1.9504934746   -0.6430780954    1.2553284767
H        1.6167684737   -4.4633657774    1.3808562220
H        2.4046465566    3.0941387753   -0.7747243694
H        1.3358342939   -1.6142392752   -1.8493728857
H       -2.2147427677    0.0602896815    1.3929702786
H       -2.7127701668   -1.4778085089    0.6765781233
H       -2.3278459940   -0.6158887739   -1.5931170072
H       -3.4578515334    0.4219661977   -0.7194882470
27   

C        2.3248868589    1.2860463319    0.2623139183
C        1.5567046651    0.1861848544    0.6227849239
C        1.7187393122   -4.0226434619    0.3245401315
C        1.7737428891    2.2806070246   -0.5453166744
C        1.8085125264   -2.3033146436   -1.1065353859
C        1.0554591213   -2.7994676703   -0.0735383783
C        0.2471855372    0.1047678637    0.1369595002
C       -0.2534735479    1.1859150819   -0.6471443740
C        2.8147199458   -4.1567630307   -0.4786978693
C       -0.2168325830   -2.3180848574    0.5247686698
C       -2.0201931544   -0.6121419232    0.5472841686
C       -2.3923905375    0.0675177751   -0.7739285293
N        0.5124118499    2.2341740153   -0.9857251214
N       -0.6085443085   -0.9736461636    0.4641603666
O       -0.9953176843   -3.1315269204    1.0235448904
O        2.8931542602   -3.1067485524   -1.3560066896
O       -1.5654245927    1.2076847049   -1.0809692833
Br       4.0578761687   -5.6026139779   -0.4083806046
H        3.3469282479    1.3876433274    0.6066721446
H        1.9682774057   -0.5783887331    1.2742452051
H        1.3974464252   -4.7103609601    1.1005202581
H        2.3869436022    3.1308873391   -0.8208413840
H        1.5810021922   -1.4070045722   -1.6726259443
H       -2.1806714623    0.0746207280    1.3847889790
H       -2.6666989147   -1.4822327895    0.6998329605
H       -2.3056422774   -0.6599619302   -1.5875284477
H       -3.4382618512    0.3862329043   -0.7277790478
27   

C        2.2772111360    1.3652827513    0.3159030270
C        1.5272174025    0.2537265820    0.6803106829
C        1.5718501466   -4.1351309288    0.1215575127
C        1.7249279855    2.3253664258   -0.5326456102
C        1.9465048221   -2.2315432402   -0.9905979282
C        1.0577642164   -2.8005211823   -0.1117688077
C        0.2380857763    0.1259067335    0.1539206568
C       -0.2702859401    1.1769018343   -0.6645212015
C        2.7133342449   -4.2589937315   -0.6160973667
C       -0.1921616792   -2.3076855345    0.5259105968
C       -2.0133749399   -0.6239671303    0.5537589698
C       -2.3897113199    0.0175305112   -0.7859819592
N        0.4781409883    2.2363560873   -1.0069507419
N       -0.5967486482   -0.9661917966    0.4800042464
O       -0.9485438457   -3.1192320802    1.0621617301
O        2.9636366571   -3.0995326901   -1.3004094034
O       -1.5736580339    1.1576692920   -1.1244779610
Br       3.8064809474   -5.8209185488   -0.6964960100
H        3.2855165503    1.5028078825    0.6872280517
H        1.9349389997   -0.4876088968    1.3606378342
H        1.1278974888   -4.8964599481    0.7556290909
H        2.3241158951    3.1842371178   -0.8123348293
H        1.8658648058   -1.2408126288   -1.4214177928
H       -2.1847911137    0.0812941471    1.3735849131
H       -2.6477813012   -1.4989444729    0.7277602465
H       -2.2946747282   -0.7307705224   -1.5795203996
H       -3.4389103910    0.3264960563   -0.7496844984
27   

C        2.2431352170    1.4644290277    0.3598308200
C        1.5129639118    0.3467837445    0.7467102600
C        1.4453633768   -4.2049261417   -0.0256016298
C        1.6985903088    2.3636365215   -0.5583385196
C        2.1135462997   -2.2182404607   -0.7984640626
C        1.0918125494   -2.7991277640   -0.0861505554
C        0.2560221219    0.1496800081    0.1688506131
C       -0.2532370971    1.1463259702   -0.7137694518
C        2.6255307830   -4.3545378534   -0.6929037328
C       -0.1399917539   -2.2859837211    0.5757855766
C       -1.9806064914   -0.6278545031    0.5584716921
C       -2.3486880454   -0.0607965413   -0.8175224152
N        0.4757731600    2.2122356293   -1.0773025058
N       -0.5580474892   -0.9489686949    0.5161800556
O       -0.8783715200   -3.0868508506    1.1523681256
O        3.0528972157   -3.1464777902   -1.1726364888
O       -1.5414882616    1.0693383593   -1.2096782851
Br       3.5537487284   -6.0046746163   -0.9309330608
H        3.2295108356    1.6536975424    0.7656322695
H        1.9103530979   -0.3493833745    1.4788866568
H        0.8767814867   -4.9931285445    0.4585878260
H        2.2824744291    3.2270590155   -0.8558344177
H        2.1909714579   -1.1772906842   -1.0815770550
H       -2.1725092865    0.1151331187    1.3395679520
H       -2.6031268192   -1.5029585443    0.7706777892
H       -2.2370653052   -0.8487254830   -1.5693932089
H       -3.4016425032    0.2372971191   -0.8082512429
