26   

C        0.3832036767   -0.4963401263   -0.3398480333
C        7.4795390927   -0.2460265896    4.7885343743
C        1.5868113573    0.1654722047   -0.0801930341
C       -0.1433542257   -1.3771555645    0.6088941109
C        6.9677792705   -0.6742264151    3.5601916587
C        6.6059180319    0.1618345758    5.8002909797
C        2.2617902205   -0.0554873666    1.1264376174
C        0.5325232652   -1.5919962416    1.8156874627
C        5.5843068897   -0.6926632411    3.3456128049
C        5.2233212451    0.1378806401    5.5830545317
C        1.7419217659   -0.9349446795    2.0873292042
C        4.6975707677   -0.2883288725    4.3541982531
C        2.4376097912   -1.1515483669    3.3572829463
C        3.2500796820   -0.3257621338    4.1367681764
H       -0.1413205757   -0.3257389571   -1.2732251277
H        8.5504800872   -0.2319954300    4.9568058023
H        1.9966302863    0.8524817339   -0.8117296128
H       -1.0765223615   -1.8924550292    0.4116523249
H        7.6417788202   -0.9951415122    2.7741763128
H        6.9985098386    0.4945959992    6.7544298924
H        3.1919296681    0.4652065831    1.3235366828
H        0.1133514612   -2.2732080556    2.5469831370
H        5.1941045033   -1.0310423618    2.3925286466
H        4.5540881220    0.4514484314    6.3757384911
H        2.3095537130   -2.1446462992    3.7711466570
H        2.6996374163    0.4381132421    4.6728959206
26   

C        0.6181972525   -0.5017686121   -0.3402845312
C        7.3975005814   -0.1894856972    4.5754203301
C        1.7734758288    0.1815048596    0.0493886539
C        0.0196257035   -1.4094146124    0.5374987438
C        6.7886587895   -0.6882090724    3.4204452163
C        6.6080439492    0.2493084053    5.6416421113
C        2.3280976414   -0.0441268566    1.3149203809
C        0.5764362716   -1.6313106039    1.8024126567
C        5.3925636375   -0.7468393240    3.3334457286
C        5.2125696065    0.1878902987    5.5513297361
C        1.7370586981   -0.9534901319    2.2057626523
C        4.5882051539   -0.3088178810    4.3969351591
C        2.3031591079   -1.1803296901    3.5392687423
C        3.1259291432   -0.3847065777    4.3186123963
H        0.1862822617   -0.3264693870   -1.3191263314
H        8.4785254984   -0.1455054045    4.6451435947
H        2.2388070095    0.8896155338   -0.6267365231
H       -0.8776799483   -1.9401282786    0.2401495760
H        7.3972311452   -1.0335736017    2.5925192712
H        7.0760886442    0.6350478056    6.5401805054
H        3.2192034491    0.4978047062    1.6101366734
H        0.1006294578   -2.3339141230    2.4765210477
H        4.9310869803   -1.1436673698    2.4365174224
H        4.6107063682    0.5264768502    6.3865463334
H        2.0582914067   -2.1366304572    3.9858960347
H        2.5947569470    0.3094473315    4.9588888160
26   

C        0.8379320269   -0.4906726936   -0.3315585229
C        7.3150643320   -0.1538649606    4.3746498680
C        1.9073528026    0.2472475946    0.1827565135
C        0.2152953859   -1.4557635783    0.4639616218
C        6.6348929124   -0.7606548217    3.3154622334
C        6.5961818502    0.3582226477    5.4576578646
C        2.3516249126    0.0198504843    1.4907302295
C        0.6634193029   -1.6817441064    1.7705887966
C        5.2383635065   -0.8551273518    3.3411296647
C        5.1998405637    0.2637022541    5.4790085921
C        1.7372670033   -0.9493023998    2.3005710355
C        4.5026497956   -0.3418679163    4.4217904282
C        2.1831580841   -1.1832362847    3.6795195389
C        3.0394918692   -0.4517754391    4.4675231481
H        0.4907076407   -0.3131221536   -1.3431455406
H        8.3967781597   -0.0831518789    4.3575827463
H        2.3915707708    0.9994155162   -0.4295109511
H       -0.6170203374   -2.0281083943    0.0703932799
H        7.1884864017   -1.1623720784    2.4744787257
H        7.1198688755    0.8265896337    6.2832533736
H        3.1760729080    0.6064041568    1.8796202250
H        0.1682945163   -2.4300583920    2.3782500804
H        4.7248108478   -1.3369308142    2.5170385494
H        4.6551001372    0.6608830382    6.3274667345
H        1.8022163465   -2.0834035828    4.1470699607
H        2.5490519399    0.1538253772    5.2203428890
26   

C        1.0327714142   -0.4710102076   -0.3080671697
C        7.2299167509   -0.1366924463    4.1974045556
C        2.0005541465    0.3250429925    0.3100682298
C        0.4129407357   -1.4942290572    0.4133345678
C        6.5033981433   -0.8513005315    3.2414217181
C        6.5648887104    0.4524918142    5.2754526363
C        2.3449194728    0.0987828929    1.6479664267
C        0.7631360614   -1.7207167753    1.7494242960
C        5.1147973684   -0.9778474364    3.3660232177
C        5.1758464442    0.3279932249    5.3943163037
C        1.7331473021   -0.9291370042    2.3847261861
C        4.4319337776   -0.3872667625    4.4424104714
C        2.0722477920   -1.1659128237    3.7954234415
C        2.9765767456   -0.5276293742    4.5951040238
H        0.7621018178   -0.2938447953   -1.3428268252
H        8.3058820651   -0.0417791194    4.1043100534
H        2.4836339565    1.1211034242   -0.2448962795
H       -0.3415524993   -2.1116141940   -0.0607761007
H        7.0147658614   -1.3114278283    2.4036572138
H        7.1248990847    1.0042236049    6.0219013240
H        3.0920580539    0.7297228401    2.1157242854
H        0.2711291017   -2.5156166137    2.2974779638
H        4.5661180220   -1.5417854753    2.6203521113
H        4.6741457378    0.7872131832    6.2379477988
H        1.5402503757   -1.9786446112    4.2756538060
H        2.5467211934   -0.0398799648    5.4619951701
26   

C        1.2072883965   -0.4514024154   -0.2812649952
C        7.1494293644   -0.1241108726    4.0392220861
C        2.0705566092    0.3982231648    0.4154622497
C        0.6046097985   -1.5230626656    0.3821287894
C        6.4002154091   -0.9362527675    3.1838552133
C        6.5201021867    0.5316416657    5.1002198336
C        2.3262089336    0.1778410256    1.7740364708
C        0.8682142824   -1.7445230193    1.7388083178
C        5.0251676770   -1.0947752058    3.3930552006
C        5.1437713613    0.3764188423    5.3019953347
C        1.7308564102   -0.8981437000    2.4529201201
C        4.3782722717   -0.4382306034    4.4529855975
C        1.9778081076   -1.1317102303    3.8850696819
C        2.9363932139   -0.6092100946    4.6942701585
H        1.0046463703   -0.2787024952   -1.3321993334
H        8.2153003936   -0.0045959360    3.8811572946
H        2.5417625048    1.2305760445   -0.0946061109
H       -0.0692831121   -2.1821980917   -0.1531997441
H        6.8832046412   -1.4464737017    2.3583797177
H        7.0980615410    1.1592027008    5.7690238429
H        2.9941865839    0.8478844292    2.3031981547
H        0.3921316048   -2.5781090378    2.2415638480
H        4.4571576262   -1.7317379706    2.7246083914
H        4.6688609393    0.8889845312    6.1302611207
H        1.2961933120   -1.8201024900    4.3708447555
H        2.5815827363   -0.2708754049    5.6607580891
26   

C        1.3469718218   -0.4383387559   -0.2495423378
C        7.0737454212   -0.1157896012    3.9174182414
C        2.1264750356    0.4508697765    0.4951906906
C        0.7556512883   -1.5367961087    0.3797617839
C        6.3183017946   -0.9968077222    3.1389223464
C        6.4660252360    0.5774250878    4.9673817623
C        2.3088642192    0.2433573425    1.8674976579
C        0.9475845701   -1.7454976877    1.7504672766
C        4.9591220348   -1.1869576347    3.4146545582
C        5.1047047728    0.3909650261    5.2343485281
C        1.7244372075   -0.8588764594    2.5116147502
C        4.3346705475   -0.4932925287    4.4635820812
C        1.8974717575   -1.0806789140    3.9581562965
C        2.9080072388   -0.6951200967    4.7726542423
H        1.2008303132   -0.2758932450   -1.3114172363
H        8.1276261091    0.0285116115    3.7080446860
H        2.5900110898    1.3031188273    0.0116884252
H        0.1465564912   -2.2267284597   -0.1930596495
H        6.7838174127   -1.5350616201    2.3212751581
H        7.0491022749    1.2585201507    5.5766911270
H        2.9136182558    0.9408911821    2.4357920536
H        0.4830652548   -2.6001147502    2.2281343376
H        4.3833532402   -1.8746451180    2.8057075810
H        4.6443262610    0.9329942648    6.0520101309
H        1.0885600299   -1.6128943237    4.4451455444
H        2.6304463860   -0.5299932147    5.8072763810
26   

C        1.4403006824   -0.4381257739   -0.2214222677
C        7.0152608407   -0.1043768340    3.8400020563
C        2.1784908241    0.4718579065    0.5404178479
C        0.8389934933   -1.5359256661    0.3999194245
C        6.2627938984   -1.0189426875    3.0978799170
C        6.4189989844    0.5886633643    4.8968650000
C        2.3094672800    0.2855041304    1.9215887441
C        0.9801960954   -1.7232926793    1.7798732581
C        4.9182884355   -1.2425080790    3.4169921779
C        5.0717861478    0.3686922785    5.2066197636
C        1.7150086333   -0.8157118196    2.5569122643
C        4.3061037898   -0.5490437492    4.4725014654
C        1.8378587037   -1.0165489958    4.0133602846
C        2.8927851185   -0.7840488366    4.8243794472
H        1.3342146467   -0.2925051558   -1.2904623261
H        8.0578785439    0.0663348505    3.5968744291
H        2.6503761533    1.3230977057    0.0632886063
H        0.2619820851   -2.2419655257   -0.1863129311
H        6.7189196379   -1.5565350562    2.2745448737
H        6.9998960419    1.2958006714    5.4779131835
H        2.8837488089    0.9962169727    2.5050425017
H        0.5098838746   -2.5772735276    2.2530275432
H        4.3419914145   -1.9537978749    2.8362384304
H        4.6181320904    0.9103728725    6.0282840623
H        0.9382935327   -1.3673703304    4.5059001360
H        2.6810211502   -0.8087566004    5.8871285716
26   

C        1.5737121640   -0.9303028924   -0.2462258288
C        6.8835582744    0.3875825009    3.8635286050
C        2.6595434988   -1.5548697296    0.3740204721
C        0.5751818719   -0.3396196733    0.5329700835
C        5.8021392201    1.0143605614    3.2378249443
C        6.6522450484   -0.6186897078    4.8053545125
C        2.7421658823   -1.5918149978    1.7709539316
C        0.6666990054   -0.3712569818    1.9293493490
C        4.4926595698    0.6374330146    3.5584573139
C        5.3413204674   -0.9983799292    5.1161185849
C        1.7490723865   -0.9973971806    2.5639639447
C        4.2476890361   -0.3753097701    4.4980020711
C        1.8227902458   -1.0366415978    4.0384166303
C        2.8700834146   -0.7758785342    4.8486826206
H        1.5062282328   -0.9044072224   -1.3279257215
H        7.8981714858    0.6811768008    3.6192675379
H        3.4390665660   -2.0110442708   -0.2252880132
H       -0.2708190056    0.1423650653    0.0564432897
H        5.9756171817    1.7925721766    2.5035120668
H        7.4876708500   -1.1048215267    5.2961136073
H        3.5877528081   -2.0766717018    2.2456753708
H       -0.1116026949    0.0890255706    2.5266620418
H        3.6583691862    1.1266117551    3.0684264721
H        5.1701237667   -1.7795271253    5.8474848639
H        0.9182164153   -1.3718653836    4.5326147839
H        2.6626665684   -0.8158154908    5.9118115012
26   

C        1.5466881946   -0.9755406415   -0.2496016072
C        6.8856341655    0.4251457751    3.9008823221
C        2.6244747573   -1.5993308458    0.3849499594
C        0.5622839665   -0.3441134823    0.5152806741
C        5.7938189714    1.0441965096    3.2859770144
C        6.6719274531   -0.6110207185    4.8138350286
C        2.7130442008   -1.5951661534    1.7819639322
C        0.6596660044   -0.3345498484    1.9116088067
C        4.4914215822    0.6299845441    3.5888092233
C        5.3682605639   -1.0280861424    5.1067885868
C        1.7339073855   -0.9599924314    2.5614257367
C        4.2634130491   -0.4129854050    4.4998263612
C        1.8115432713   -0.9581208593    4.0346693904
C        2.8948944021   -0.8509440591    4.8343568308
H        1.4744396818   -0.9819817564   -1.3312867330
H        7.8946342487    0.7480363716    3.6707383187
H        3.3930523960   -2.0873195469   -0.2033457536
H       -0.2776567458    0.1373105793    0.0276001546
H        5.9536748505    1.8458241849    2.5740952202
H        7.5155380736   -1.0912031390    5.2963787429
H        3.5523618530   -2.0815128951    2.2660534132
H       -0.1087785642    0.1571618720    2.4964731627
H        3.6502254745    1.1157053920    3.1073601289
H        5.2123067555   -1.8320724079    5.8164625722
H        0.8657095373   -1.0993493446    4.5449074929
H        2.7297341300   -1.0849735919    5.8797477697
26   

C        1.4650036518   -1.0140561036   -0.2837179026
C        6.9371526930    0.4533893903    3.9777080847
C        2.5713309049   -1.5978226181    0.3393392745
C        0.4889779560   -0.3793084504    0.4887882316
C        5.8546207515    1.0451833732    3.3213177980
C        6.7143013411   -0.5863078554    4.8841650162
C        2.6970491654   -1.5505538698    1.7327199857
C        0.6227916192   -0.3267221853    1.8811102396
C        4.5520127297    0.6003822076    3.5760993585
C        5.4109949028   -1.0339284918    5.1296461678
C        1.7261975095   -0.9118627249    2.5206768110
C        4.3141467351   -0.4465830274    4.4808867565
C        1.8400553175   -0.8673681310    3.9892302367
C        2.9466124208   -0.9145482240    4.7680329607
H        1.3639727041   -1.0544073374   -1.3623691313
H        7.9460054459    0.8003866722    3.7850092327
H        3.3330686717   -2.0890396239   -0.2551607699
H       -0.3731192431    0.0710549049    0.0101565370
H        6.0218085502    1.8501667532    2.6149051482
H        7.5505935521   -1.0453800882    5.3989415627
H        3.5582601005   -2.0088019323    2.2055459706
H       -0.1410251615    0.1671210165    2.4701918423
H        3.7195861009    1.0683451948    3.0629546730
H        5.2500435966   -1.8401341232    5.8356504884
H        0.8997806234   -0.8081112834    4.5250679768
H        2.8003682686   -1.3407989941    5.7537676734
26   

C        1.3358362035   -1.0517339468   -0.3281391249
C        7.0145218427    0.4737523519    4.0946328865
C        2.5010841545   -1.5562002970    0.2551673479
C        0.3618922883   -0.4529797113    0.4747858871
C        5.9649918757    1.0171342658    3.3491403135
C        6.7553821317   -0.5414371583    5.0187531059
C        2.6885530025   -1.4652288281    1.6394506130
C        0.5560562643   -0.3573742177    1.8576279629
C        4.6587084115    0.5481549554    3.5317431744
C        5.4490892948   -1.0127924740    5.1934374141
C        1.7200029053   -0.8619255243    2.4585782658
C        4.3839256918   -0.4750470931    4.4540162597
C        1.8966032722   -0.7745877339    3.9171624202
C        3.0129778578   -0.9659107416    4.6681191572
H        1.1873101947   -1.1261708119   -1.3994701415
H        8.0258027271    0.8396849583    3.9576839159
H        3.2605203040   -2.0207857992   -0.3632439505
H       -0.5457173165   -0.0642272393    0.0272528977
H        6.1605735371    1.8042471948    2.6299628040
H        7.5657443779   -0.9629049564    5.6025744871
H        3.5950986200   -1.8653573357    2.0790432729
H       -0.2086376208    0.1073422128    2.4688296664
H        3.8534509174    0.9823686671    2.9502031079
H        5.2619409637   -1.7989606823    5.9153801313
H        1.0063084383   -0.5215852630    4.4809229630
H        2.8664856592   -1.5692330633    5.5563776809
26   

C        1.1705061160   -1.1055210778   -0.3562244796
C        7.0866133335    0.4959163315    4.2540057101
C        2.4042459380   -1.5066513396    0.1627898334
C        0.2033973147   -0.5647985996    0.4946017465
C        6.0942774302    0.9786577925    3.3969014488
C        6.7688126099   -0.4789149369    5.2028443101
C        2.6679496011   -1.3691193391    1.5307456838
C        0.4722289975   -0.4243249230    1.8610090919
C        4.7864264067    0.4884131837    3.4914166334
C        5.4612247671   -0.9702816344    5.2913574749
C        1.7067090900   -0.8232035636    2.3977480255
C        4.4529880106   -0.4949113128    4.4377719916
C        1.9637533199   -0.6898890550    3.8390264198
C        3.0798227715   -1.0052612112    4.5598578193
H        0.9635389340   -1.2156537561   -1.4147204809
H        8.0988079277    0.8780549595    4.1846715053
H        3.1576444567   -1.9279593063   -0.4929191399
H       -0.7568122951   -0.2561806067    0.0971619196
H        6.3353650262    1.7359524284    2.6597144950
H        7.5344281608   -0.8533184258    5.8728143623
H        3.6269652077   -1.6919627665    1.9195371341
H       -0.2890217768   -0.0067314920    2.5094004659
H        4.0259750414    0.8783781317    2.8245266295
H        5.2287212234   -1.7236165036    6.0348159770
H        1.1564298961   -0.2623860089    4.4218176286
H        2.9253039575   -1.7576212274    5.3242230122
26   

C        0.9803167655   -1.1727471456   -0.3757859487
C        7.1560419651    0.5224730664    4.4425343210
C        2.2782773106   -1.4617150875    0.0537668766
C        0.0372438763   -0.6967421953    0.5385235883
C        6.2473828603    0.9429184667    3.4677076590
C        6.7577977993   -0.4066731287    5.4069094376
C        2.6307234625   -1.2752529332    1.3957475141
C        0.3937293565   -0.5097308634    1.8790809546
C        4.9429188013    0.4347929722    3.4591370780
C        5.4533385586   -0.9139812578    5.3941003546
C        1.6939252956   -0.7944049628    2.3251050306
C        4.5298448684   -0.5020856776    4.4204565529
C        2.0476176613   -0.6125260341    3.7387183635
C        3.1587492670   -1.0277267593    4.4319140340
H        0.7051506994   -1.3199908026   -1.4140542140
H        8.1654988272    0.9178158689    4.4523439242
H        3.0125968024   -1.8343487422   -0.6512255333
H       -0.9718741523   -0.4746371940    0.2105369759
H        6.5507236267    1.6661069678    2.7193247152
H        7.4582422075   -0.7330275678    6.1672349602
H        3.6385253737   -1.5126075548    1.7166736085
H       -0.3490095361   -0.1444308179    2.5785580534
H        4.2460089353    0.7771428969    2.7027564808
H        5.1563454062   -1.6305350987    6.1508843283
H        1.3393000627   -0.0417956472    4.3274240817
H        2.9957263423   -1.8928350671    5.0636044256
26   

C        0.7801876875   -1.2476494514   -0.3981847395
C        7.2293587097    0.5543862334    4.6416590698
C        2.1283335715   -1.4342919498   -0.0803064137
C       -0.1133803984   -0.8247867202    0.5894111672
C        6.4274242684    0.9256710745    3.5588714199
C        6.7352636427   -0.3373418356    5.5973329308
C        2.5804220413   -1.1975164156    1.2233927730
C        0.3422334649   -0.5903751413    1.8920069156
C        5.1340040930    0.4047140942    3.4333646360
C        5.4410975263   -0.8549963461    5.4690386413
C        1.6934085966   -0.7720619192    2.2244121727
C        4.6259597156   -0.4921036902    4.3859685320
C        2.1578759491   -0.5400479043    3.5956709670
C        3.2656144878   -1.0267294776    4.2692673555
H        0.4281820096   -1.4326979989   -1.4067778154
H        8.2303752586    0.9586548515    4.7413823703
H        2.8242686935   -1.7662278197   -0.8422724153
H       -1.1602988745   -0.6806049104    0.3477422700
H        6.8051113748    1.6203630923    2.8173495835
H        7.3531271581   -0.6265616788    6.4398456418
H        3.6263770348   -1.3538653087    1.4610004453
H       -0.3609527356   -0.2674191710    2.6507522487
H        4.5175036328    0.7062350369    2.5943551931
H        5.0669100464   -1.5419783573    6.2190419502
H        1.5491727912    0.1416088320    4.1777130641
H        3.0981009769   -1.9705969508    4.7742445413
26   

C        0.5718073438   -1.3505441287   -0.4056641121
C        7.2868456085    0.6064869681    4.8610144556
C        1.9498940329   -1.4790092296   -0.2095871385
C       -0.2432828300   -0.9308559768    0.6491847613
C        6.5980755436    0.9678433222    3.6995093241
C        6.7034581225   -0.2857092025    5.7648177769
C        2.5101236429   -1.1866475314    1.0398255788
C        0.3203339070   -0.6436182458    1.8978515275
C        5.3285120877    0.4358076049    3.4435580009
C        5.4322659142   -0.8120265854    5.5071538017
C        1.7020788707   -0.7673012048    2.1067256792
C        4.7316146768   -0.4582310334    4.3443728015
C        2.2851939880   -0.4799935910    3.4189424652
C        3.3957663806   -0.9998907843    4.0864675477
H        0.1361351445   -1.5774241465   -1.3721732051
H        8.2695872069    1.0182143069    5.0613210899
H        2.5851389172   -1.8080186221   -1.0240188307
H       -1.3125074687   -0.8299146149    0.5015066650
H        7.0453354370    1.6626011148    2.9978318615
H        7.2340778443   -0.5686239299    6.6668385825
H        3.5788696928   -1.2936226599    1.1863610874
H       -0.3209657519   -0.3236426197    2.7108050319
H        4.7977675691    0.7245488840    2.5435161210
H        4.9864813185   -1.4992980206    6.2167163603
H        1.7661510005    0.2888763483    3.9787200971
H        3.2364341634   -1.9979732220    4.4768039033
