25   

C        0.0068803293   -0.0810819599    1.3459008766
C        1.6315915788   -0.6648274863    2.9781618795
C       -0.8535719241   -1.0031496334    1.9414224078
C        1.2903646388    0.0991544980    1.8649608425
C        0.7114608872   -1.5718246246    3.5098646676
C        2.3068155728    1.0640187604    1.3402247223
C        2.8336459322    4.1089757719    0.8928315513
C        2.3050045370   -2.4958919877    5.2195317070
C        2.6594766855    2.9351757421   -0.0658273324
N       -0.5059796059   -1.7384553170    3.0068044767
N        0.9822360427   -2.3719279363    4.5945044673
O        3.4815459111    1.0179538604    1.6971550517
O        1.7633965729    1.9602501259    0.4871598488
H       -0.3312174133    0.4860001238    0.4874229031
H        2.6076864004   -0.5615602111    3.4313667574
H       -1.8459645177   -1.1317048944    1.5250636223
H        1.8632491986    4.5666935399    1.1069457112
H        3.2856277507    3.7729916605    1.8309996649
H        3.4869403472    4.8621234260    0.4427675092
H        3.0576325014   -2.7700251978    4.4726686195
H        2.2829549456   -3.2792425526    5.9837901978
H        2.5914540692   -1.5549729719    5.7006516921
H        3.6356505025    2.4913430752   -0.2915582681
H        2.2423413512    3.3015892817   -1.0090685162
H        0.2079576052   -2.9812743820    4.8332253832
25   

C       -0.0024658432   -0.1855623778    1.2506520737
C        1.6132868913   -0.6612449422    2.9260970329
C       -0.8582975345   -1.0839517080    1.8878658801
C        1.2749854004    0.0322566773    1.7672048216
C        0.6986059698   -1.5484911996    3.4987577419
C        2.2751099011    0.9929847864    1.2060392413
C        2.9399154170    4.0421274244    1.0446187630
C        2.2868280936   -2.3591708622    5.2692586381
C        2.5523383817    3.0061494543   -0.0058419895
N       -0.5119845389   -1.7569808064    2.9943522694
N        0.9676014747   -2.2826221033    4.6294309030
O        3.4802312058    0.8495040237    1.3947143579
O        1.6782889778    2.0174135929    0.5575825281
H       -0.3372310449    0.3365516415    0.3628707692
H        2.5846057002   -0.5170504073    3.3784085841
H       -1.8460849475   -1.2447337625    1.4717607914
H        2.0430505119    4.5190938522    1.4509955557
H        3.4953668458    3.5702026033    1.8607344693
H        3.5734863023    4.8104844783    0.5920578850
H        3.0481918419   -2.6626604488    4.5428805773
H        2.2675929001   -3.1024401358    6.0726286460
H        2.5590272669   -1.3915322815    5.7033339378
H        3.4543457543    2.5440476640   -0.4226655166
H        2.0328631336    3.5071432759   -0.8287203521
H        0.1986078463   -2.8882616087    4.8934231997
25   

C       -0.0021574083   -0.2886244301    1.1555712886
C        1.6014939278   -0.6426243889    2.8713682775
C       -0.8464500995   -1.1728794036    1.8272960502
C        1.2641710229   -0.0203196030    1.6729261234
C        0.6994938393   -1.5202531231    3.4779181207
C        2.2388730825    0.9462395074    1.0763455470
C        3.0669146019    3.9589602945    1.1817643959
C        2.2831567554   -2.2060962171    5.3040830979
C        2.4691805543    3.0817327379    0.0863135248
N       -0.4994290385   -1.7818366956    2.9702525047
N        0.9696524737   -2.1883038553    4.6485063169
O        3.4468735891    0.7278404158    1.0820502968
O        1.6224066748    2.0714178149    0.6528364361
H       -0.3360476132    0.1858789305    0.2412526137
H        2.5641438549   -0.4500674487    3.3239281130
H       -1.8257676035   -1.3751243631    1.4092654398
H        2.2688942799    4.4218880196    1.7698588790
H        3.7012957842    3.3634984657    1.8452631462
H        3.6775525138    4.7480526630    0.7333694806
H        3.0586913971   -2.5265615498    4.6003432180
H        2.2710104650   -2.9113186940    6.1411921550
H        2.5298112147   -1.2135218300    5.6949407033
H        3.2718565659    2.6343154354   -0.5107223357
H        1.8715169221    3.7052996290   -0.5859655725
H        0.2112010455   -2.7980134897    4.9329656149
25   

C       -0.0108765933   -0.4012210790    1.0665662881
C        1.5751150576   -0.6201675352    2.8195098734
C       -0.8342052314   -1.2852233076    1.7643779310
C        1.2360438471   -0.0650175702    1.5894988981
C        0.6954027189   -1.5024030958    3.4516321360
C        2.1794534535    0.9113924770    0.9554244961
C        3.2269090941    3.8390058071    1.2785003360
C        2.2733127411   -2.0506829250    5.3287292196
C        2.4096026380    3.1389521551    0.1974171766
N       -0.4847647017   -1.8299565219    2.9385771700
N        0.9702888508   -2.1075722588    4.6548507821
O        3.3555588244    0.6294488686    0.7488126951
O        1.5883533516    2.1112718599    0.7700226404
H       -0.3455952033    0.0202953832    0.1270936741
H        2.5231796443   -0.3721135352    3.2752119900
H       -1.7984977731   -1.5414218457    1.3410377092
H        2.5618647054    4.2652767280    2.0354720174
H        3.9103513538    3.1325185270    1.7591345765
H        3.8172716588    4.6453121130    0.8335867536
H        3.0707692891   -2.3701773431    4.6494772103
H        2.2739132828   -2.7219660310    6.1933859358
H        2.4775439145   -1.0348584445    5.6825474985
H        3.0789784220    2.7286254050   -0.5671039767
H        1.7631467754    3.8724661138   -0.2945861731
H        0.2299922975   -2.7324867508    4.9539137157
25   

C       -0.0356938203   -0.5032010458    0.9955174131
C        1.5073228748   -0.5633423129    2.7973350023
C       -0.8241106360   -1.4123554859    1.7013168568
C        1.1693194218   -0.0679607045    1.5422480382
C        0.6649951806   -1.4768931669    3.4361058164
C        2.0741851249    0.9292091628    0.8797495816
C        3.3788902682    3.7274220967    1.3408463318
C        2.2236984445   -1.8757482925    5.3663333909
C        2.3405056696    3.2165352945    0.3469476263
N       -0.4778139247   -1.8933545201    2.9038162308
N        0.9426224249   -2.0258333300    4.6653640689
O        3.1685430808    0.6076392672    0.4290687576
O        1.5506166020    2.1719013569    0.9327287296
H       -0.3643226626   -0.1413055184    0.0295007866
H        2.4256171233   -0.2441969466    3.2687631495
H       -1.7565207937   -1.7442419878    1.2595221867
H        2.8849390978    4.0903912325    2.2470821960
H        4.0774148862    2.9289802500    1.6087992414
H        3.9460455607    4.5497560135    0.8950807606
H        3.0545072961   -2.1631923570    4.7132375875
H        2.2434430067   -2.5255031107    6.2470688350
H        2.3591465859   -0.8415429211    5.6992602195
H        2.8385914681    2.8697691148   -0.5655017069
H        1.6787584899    4.0412736922    0.0642388151
H        0.2336721602   -2.6863597211    4.9640317100
25   

C       -0.0350449946   -0.6214214665    0.9241987277
C        1.4465039748   -0.5115178132    2.7729245118
C       -0.7698952663   -1.5754854718    1.6283452759
C        1.1049630317   -0.0657313930    1.5003941698
C        0.6611542953   -1.4765358415    3.4088659346
C        1.9627876354    0.9576757738    0.8134414703
C        3.5371200041    3.5983221225    1.3240243489
C        2.1919555448   -1.7150844207    5.3875785145
C        2.2984088964    3.2756364128    0.4941288934
N       -0.4269577714   -1.9963439883    2.8539831754
N        0.9459304469   -1.9770110786    4.6570298948
O        2.9035927646    0.6344003554    0.0965405357
O        1.5505995361    2.2105863176    1.0979212205
H       -0.3526544633   -0.3205581100   -0.0661850147
H        2.3223345882   -0.1116954932    3.2627780786
H       -1.6539526038   -1.9970876578    1.1642113906
H        3.2462137415    3.8706000503    2.3429878423
H        4.2081021603    2.7347833776    1.3614496116
H        4.0761957036    4.4377804052    0.8753573810
H        3.0600258505   -1.9451459441    4.7607417809
H        2.2397520589   -2.3483470848    6.2791915615
H        2.2360797286   -0.6685983389    5.7064262469
H        2.5930454230    3.0201968390   -0.5299693509
H        1.6622880472    4.1646209194    0.4385935599
H        0.2837519031   -2.6871740597    4.9492756718
25   

C       -0.0277070167   -0.7187294086    0.8644961806
C        1.3754249784   -0.4491834931    2.7559473177
C       -0.6980840856   -1.7240514558    1.5612431910
C        1.0313365455   -0.0455824336    1.4697048514
C        0.6585230986   -1.4712848321    3.3836937708
C        1.8358574251    1.0114430516    0.7719612644
C        3.6636305041    3.4768746539    1.2804858523
C        2.1440300474   -1.5498631580    5.4095516232
C        2.2765734817    3.3321219132    0.6618514470
N       -0.3613864256   -2.0930080743    2.8050980563
N        0.9493016112   -1.9303831398    4.6462900364
O        2.5741001845    0.7392423759   -0.1686604033
O        1.5694971188    2.2396673084    1.2656115009
H       -0.3291970284   -0.4701628808   -0.1454339562
H        2.1987158940    0.0306110507    3.2646742247
H       -1.5219944522   -2.2331019331    1.0746530834
H        3.5791404177    3.6306265794    2.3604481985
H        4.2619959913    2.5803347452    1.0918410457
H        4.1782497858    4.3366102730    0.8416337827
H        3.0479777373   -1.7095387787    4.8122545651
H        2.2201213371   -2.1656046382    6.3114179306
H        2.0855136357   -0.4998111064    5.7140203484
H        2.3646623515    3.1958454594   -0.4218608241
H        1.7105531423    4.2537309400    0.8299848904
H        0.3430648749   -2.6922424149    4.9297278336
25   

C       -0.0086039546   -0.7793791593    0.8176301283
C        1.3109634356   -0.3814774233    2.7450938763
C       -0.6141701260   -1.8317468520    1.5037180369
C        0.9698053838   -0.0121552857    1.4471367435
C        0.6627041905   -1.4550453569    3.3615680874
C        1.7132082991    1.0875839118    0.7530705716
C        3.7586082829    3.3800027173    1.2212347701
C        2.0880056753   -1.3943868871    5.4311555198
C        2.2811258807    3.3824325319    0.8405216126
N       -0.2854764800   -2.1625300703    2.7602713543
N        0.9554112408   -1.8820968250    4.6349146638
O        2.2447581742    0.9101320438   -0.3381048037
O        1.6120859241    2.2560960688    1.4249874581
H       -0.2952027791   -0.5667086521   -0.2050205213
H        2.0782801431    0.1663194082    3.2725205472
H       -1.3769188838   -2.4118758432    0.9973584343
H        3.8661704247    3.3978174189    2.3099136010
H        4.2537048202    2.4873172738    0.8269287982
H        4.2513315000    4.2631543695    0.8043232376
H        3.0214124498   -1.4837633761    4.8653608550
H        2.1853581569   -1.9920328210    6.3430945071
H        1.9317156806   -0.3498359530    5.7196444417
H        2.1775474715    3.3824146621   -0.2503457402
H        1.8158673037    4.3006294554    1.2125994184
H        0.4052318712   -2.6887371639    4.9086561739
25   

C        0.0460175856   -0.8233056714    0.7748350363
C        1.2668838117   -0.3354897300    2.7450069431
C       -0.5027223633   -1.9199050605    1.4385714060
C        0.9446829862    0.0132579000    1.4358329513
C        0.6795990897   -1.4563598398    3.3381341234
C        1.6187093045    1.1674762983    0.7636076975
C        3.8305562158    3.3160052944    1.1465346883
C        2.0219016064   -1.2943024360    5.4574009790
C        2.3131557456    3.4149347489    1.0209281580
N       -0.1925138000   -2.2301988355    2.7047364513
N        0.9601847934   -1.8654840181    4.6200813068
O        1.9595849011    1.1094872665   -0.4137392654
O        1.6882116498    2.2482142631    1.5742785240
H       -0.2229521810   -0.6282783897   -0.2563445641
H        1.9732484543    0.2634641117    3.3013938182
H       -1.2035795657   -2.5524608755    0.9062041243
H        4.1138353720    3.1958796013    2.1964896800
H        4.2069320397    2.4625367151    0.5743026856
H        4.2958793844    4.2266569573    0.7582974800
H        2.9803655109   -1.3145168254    4.9279840312
H        2.1281381691   -1.8823298970    6.3745805013
H        1.7775766629   -0.2640161730    5.7359032592
H        2.0345520223    3.5527574606   -0.0298391789
H        1.9639908121    4.2954426901    1.5693466078
H        0.4610903860   -2.7105692718    4.8750641341
25   

C        0.0996738800   -0.8761712141    0.7511833610
C        1.2213561849   -0.3218557174    2.7609736049
C       -0.3999546265   -2.0086550462    1.3924178704
C        0.9256943321    0.0121473110    1.4410200236
C        0.6867553852   -1.4808247506    3.3307469018
C        1.5266111330    1.2178166999    0.7911165458
C        3.8713518853    3.2486366665    1.0126191704
C        1.9345339387   -1.2390342675    5.5002677694
C        2.3601009420    3.4029720876    1.1550618377
N       -0.1120564592   -2.3057487519    2.6665213737
N        0.9475297402   -1.8771955533    4.6209402508
O        1.6811402030    1.2744422631   -0.4252512952
O        1.7815435498    2.2016743472    1.6846133256
H       -0.1533629435   -0.6918549744   -0.2861736391
H        1.8679911427    0.3132864156    3.3488677995
H       -1.0432733317   -2.6801132961    0.8356105888
H        4.3178616182    3.0083534083    1.9821306814
H        4.1091619422    2.4514066604    0.3017192182
H        4.3074238360    4.1823345248    0.6457511392
H        2.9134568336   -1.1974597944    5.0110839905
H        2.0399619017   -1.8191552086    6.4225588997
H        1.6131620879   -0.2266544961    5.7659261436
H        1.9190576238    3.6608068083    0.1856508140
H        2.1465158336    4.2289923759    1.8406471971
H        0.4929402241   -2.7523125284    4.8571035056
25   

C        0.1840438496   -0.9004589778    0.7300060910
C        1.1930840094   -0.3049847980    2.7862085373
C       -0.2740475540   -2.0666858519    1.3404058990
C        0.9360440605    0.0249057155    1.4567222080
C        0.7042530527   -1.4993528873    3.3237162263
C        1.4674248711    1.2804174288    0.8405157902
C        3.9019916313    3.2224377448    0.8634508671
C        1.8449793025   -1.2102392808    5.5461853848
C        2.4412601141    3.3950783161    1.2686289596
N       -0.0180671642   -2.3618532636    2.6212918851
N        0.9331524395   -1.8934627790    4.6207090680
O        1.4447072931    1.4499732371   -0.3752262053
O        1.9096351660    2.1599118889    1.7689637425
H       -0.0468802688   -0.7177245106   -0.3128778553
H        1.7742425671    0.3554338085    3.4130211557
H       -0.8584302147   -2.7657726580    0.7534384742
H        4.4907570233    2.8753021883    1.7177879054
H        3.9899737667    2.4962297250    0.0496031143
H        4.3081206645    4.1786191120    0.5209140151
H        2.8398597322   -1.1098109383    5.0995995834
H        1.9433487136   -1.7925682622    6.4678600867
H        1.4568186789   -0.2198229774    5.8053716953
H        1.8587476803    3.7596020756    0.4150484960
H        2.3742815038    4.1522213406    2.0561508728
H        0.5191829286   -2.7950499503    4.8305063451
25   

C       -0.2165355219   -0.1450524016    1.1671078219
C        1.6037171909   -0.9779460576    2.4288019946
C       -1.0725457480   -0.6644295419    2.1364777413
C        1.1663382290   -0.2939569980    1.2958189243
C        0.6809504395   -1.4630802649    3.3603947363
C        2.1228154593    0.2448069853    0.2788622929
C        4.7248570497    1.9348507418   -0.0428114488
C        2.4251309309   -2.2690243080    4.9830514077
C        4.4007574986    0.4708909131   -0.3241103706
N       -0.6293717771   -1.3147499572    3.2197488047
N        1.0438404010   -2.1312369315    4.5057536066
O        1.7210500459    0.8448500459   -0.7141556854
O        3.4125524201   -0.0123886527    0.5971802610
H       -0.6329992897    0.3739709180    0.3117972753
H        2.6571957783   -1.1409014928    2.6026438958
H       -2.1411791307   -0.5352737133    2.0095908355
H        3.8371901249    2.5579823807   -0.1882735539
H        5.0786443380    2.0507689935    0.9859766399
H        5.5068884695    2.2799065581   -0.7254104799
H        2.9026952245   -1.2867449399    5.0628279352
H        3.0034616130   -2.9048173204    4.3047654397
H        2.4305743694   -2.7313498838    5.9752652756
H        5.3107931174   -0.1263544294   -0.2097903701
H        4.0639253288    0.3569647056   -1.3606515998
H        0.2438688390   -2.3944705333    5.0705497069
25   

C       -0.2422358599   -0.2203955535    1.1243833046
C        1.6037034535   -0.9329982818    2.4227966294
C       -1.0812660367   -0.7914959167    2.0795590415
C        1.1442244831   -0.2867055744    1.2766654845
C        0.6966879203   -1.4741058587    3.3387403551
C        2.0854181185    0.3288016418    0.2899209015
C        4.8122249636    1.8146570364    0.0504838914
C        2.4582190708   -2.1555856728    4.9990820037
C        4.3351832075    0.4497364271   -0.4364518485
N       -0.6176372706   -1.4113990932    3.1723054786
N        1.0801139470   -2.1100898303    4.4956310099
O        1.6814431555    1.0949064587   -0.5802370014
O        3.3595006478   -0.0920785284    0.4652459360
H       -0.6738258655    0.2762344252    0.2633294927
H        2.6627656180   -1.0195227317    2.6169428465
H       -2.1534812287   -0.7281615977    1.9342993352
H        3.9808821926    2.5259729125    0.0696007561
H        5.2328937171    1.7289979167    1.0568350198
H        5.5837591027    2.2003695619   -0.6222093488
H        2.8697053198   -1.1440353792    5.0812747591
H        3.0890245422   -2.7561534036    4.3356286470
H        2.4749519041   -2.6112584981    5.9942451999
H        5.1891853879   -0.2332111588   -0.4834228276
H        3.9308300686    0.5369321515   -1.4511891431
H        0.2883033140   -2.4214249614    5.0473123828
25   

C       -0.2565974459   -0.2887257125    1.0772263838
C        1.5968584167   -0.8835585500    2.4247445353
C       -1.0818249495   -0.9130460882    2.0113278946
C        1.1261735148   -0.2730978143    1.2641520783
C        0.7033468992   -1.4821346679    3.3174986016
C        2.0555403988    0.4204452873    0.3194364472
C        4.8863822140    1.6903012535    0.1066713045
C        2.4622124246   -2.0450777025    5.0239056560
C        4.2563362590    0.4658155190   -0.5503334259
N       -0.6076449777   -1.5042468685    3.1159271080
N        1.0970248801   -2.0891723644    4.4863600863
O        1.6649786892    1.3332110013   -0.4023310386
O        3.2908826578   -0.1320214487    0.3264492013
H       -0.6947608166    0.1875265767    0.2081435540
H        2.6553794741   -0.8941105816    2.6405726614
H       -2.1520945378   -0.9152592690    1.8402499219
H        4.1272448639    2.4548823592    0.2980736800
H        5.3571508794    1.4087180696    1.0533226503
H        5.6485011101    2.1152829659   -0.5529554607
H        2.8061598313   -1.0090879944    5.1119045605
H        3.1463652731   -2.6059082842    4.3787926720
H        2.4831982437   -2.4959609004    6.0211718083
H        5.0387785938   -0.2684561115   -0.7661673493
H        3.8013406781    0.7487406699   -1.5062037194
H        0.3132095692   -2.4496939918    5.0191931014
25   

C       -0.2467571215   -0.3616859152    1.0403240597
C        1.5955274571   -0.8465957482    2.4477772817
C       -1.0606360262   -1.0444663710    1.9434213430
C        1.1245164764   -0.2642390156    1.2737204557
C        0.7133950140   -1.5072009877    3.3071559040
C        2.0434978861    0.5074387316    0.3801788917
C        4.9563320203    1.5598117634    0.1289554309
C        2.4444128257   -1.9547952729    5.0742916687
C        4.1695988106    0.5163248034   -0.6586039942
N       -0.5860544804   -1.6126766864    3.0603712100
N        1.1063902460   -2.0932366185    4.4868251125
O        1.6822488042    1.5477843532   -0.1610090312
O        3.2170185075   -0.1383438967    0.1910952182
H       -0.6842384043    0.0974887104    0.1619841695
H        2.6460244239   -0.7859348946    2.6928082326
H       -2.1226519268   -1.1121871034    1.7378028522
H        4.2875068303    2.3408571378    0.5033314426
H        5.4643966832    1.0877717090    0.9752007311
H        5.7064489528    2.0253217187   -0.5169281991
H        2.7137688736   -0.8975852563    5.1696589458
H        3.1885818488   -2.4694716135    4.4577963631
H        2.4587713309   -2.4003745872    6.0740610834
H        4.8625965363   -0.2329172878   -1.0540329099
H        3.6766500144    0.9897387953   -1.5151132253
H        0.3297830312   -2.5049487817    4.9924487158
25   

C       -0.2263034875   -0.4371276581    1.0142892803
C        1.5843951871   -0.8080383827    2.4970110842
C       -1.0283564098   -1.1828075177    1.8777597426
C        1.1230993140   -0.2501357501    1.3081342066
C        0.7145783074   -1.5356805775    3.3135766055
C        2.0296696126    0.5950169907    0.4669097161
C        4.9956225122    1.4483950613    0.1025638103
C        2.3944690821   -1.8741777176    5.1525318630
C        4.0514175989    0.6176702208   -0.7613103894
N       -0.5629859547   -1.7279780893    3.0102805890
N        1.0973778529   -2.1042948439    4.5050492872
O        1.7184716980    1.7353830636    0.1391611501
O        3.1182500865   -0.0962882479    0.0616781194
H       -0.6566535577    0.0008429098    0.1220099253
H        2.6174548942   -0.6759086579    2.7840027940
H       -2.0737623116   -1.3208391636    1.6271424367
H        4.4363287512    2.2038117126    0.6629399129
H        5.5279614208    0.8016014003    0.8063974723
H        5.7279562754    1.9573682265   -0.5308252664
H        2.5843333535   -0.8010170754    5.2604113063
H        3.1999984120   -2.3331746580    4.5701370525
H        2.3950308114   -2.3210772886    6.1518172424
H        4.6358283930   -0.1048362912   -1.3396194263
H        3.5333145270    1.2662359431   -1.4766087251
H        0.3298983970   -2.5714486656    4.9752011230
25   

C       -0.1719767227   -0.4912874118    0.9950890274
C        1.5738987443   -0.7582040912    2.5761807842
C       -0.9692343078   -1.2985991476    1.8063566071
C        1.1409319227   -0.2152010615    1.3706004875
C        0.7103087425   -1.5513323642    3.3363599964
C        2.0469643606    0.6835808577    0.5815031330
C        5.0414054203    1.3253278860    0.0344900927
C        2.3014365752   -1.7958944285    5.2665003426
C        3.9361578338    0.7405535992   -0.8396120240
N       -0.5328162376   -1.8239380460    2.9597133738
N        1.0641608362   -2.1095885048    4.5416002736
O        1.8398861371    1.8893530365    0.4972628799
O        3.0159077256   -0.0191290977   -0.0433951811
H       -0.5786393072   -0.0778849377    0.0805593577
H        2.5788848919   -0.5626089609    2.9205069694
H       -1.9866044472   -1.5050757693    1.4948183719
H        4.6214961973    2.0203539503    0.7679933274
H        5.5678296235    0.5235719560    0.5609519399
H        5.7588223059    1.8684078946   -0.5875602019
H        2.4103960507   -0.7130773079    5.3890425875
H        3.1698911091   -2.1944399340    4.7320084268
H        2.2731440579   -2.2489361205    6.2626144044
H        4.3829139550    0.0791963929   -1.5886291582
H        3.4228684616    1.5448832049   -1.3784544839
H        0.3039305480   -2.6309114960    4.9641665982
25   

C       -0.0790564675   -0.5503169068    0.9641136489
C        1.5730880981   -0.7082871741    2.6583183946
C       -0.8699695783   -1.4172286242    1.7184250810
C        1.1784032318   -0.1785902047    1.4342456214
C        0.7183616218   -1.5652969239    3.3564815674
C        2.0927780181    0.7569022311    0.6967483108
C        5.0819674654    1.1859796218   -0.0732447674
C        2.1960781719   -1.7222172764    5.3831110359
C        3.8352677539    0.8762054253   -0.8960674944
N       -0.4761771421   -1.9183923179    2.8976958220
N        1.0324325179   -2.1123873238    4.5777655212
O        2.0508304075    1.9700487236    0.8701981345
O        2.9135645128    0.0826175792   -0.1352794962
H       -0.4475238910   -0.1692970030    0.0200214515
H        2.5393153043   -0.4500843184    3.0665223309
H       -1.8456146734   -1.6953705846    1.3370069304
H        4.8208156484    1.7792805530    0.8082939038
H        5.5598821055    0.2561254257    0.2492716062
H        5.7932759481    1.7564797136   -0.6775334662
H        2.2219184055   -0.6358254903    5.5190685770
H        3.1224719010   -2.0545459856    4.9034284449
H        2.1355165806   -2.1867469760    6.3724665095
H        4.1259013650    0.3167759357   -1.7908290055
H        3.3695014507    1.8097440624   -1.2313355925
H        0.2840804000   -2.6880682077    4.9476037206
25   

C       -0.1916876263    0.4776497541    1.9952031946
C        1.5950536691   -0.5203387440    3.1958135702
C       -0.9808968319   -0.6161658096    2.3511026255
C        1.1296548116    0.5444761474    2.4313202580
C        0.7421270409   -1.5840784193    3.5020306933
C        2.0642035502    1.6652146493    2.0816458433
C        2.5879704051    3.8704187789   -0.0467226719
C        2.5119692829   -2.9334696014    4.6712720027
C        3.3551894019    2.6098431537    0.3406598108
N       -0.5205165372   -1.6322346358    3.0943512799
N        1.1324114163   -2.6751360752    4.2414881740
O        2.4469761897    2.4727182518    2.9214852165
O        2.4514899346    1.5905213845    0.7904744583
H       -0.6101069260    1.2678447343    1.3847809655
H        2.6149118019   -0.5169050235    3.5525549769
H       -2.0089544406   -0.6484486934    2.0093744118
H        1.8570320263    3.6403732529   -0.8277009265
H        2.0660317774    4.2827885561    0.8221666410
H        3.2820791499    4.6261385033   -0.4257488950
H        3.1864684647   -2.9405899646    3.8085522315
H        2.5720121975   -3.9120115748    5.1582278356
H        2.8395581443   -2.1730329470    5.3876753703
H        4.0978490676    2.8479463212    1.1104034626
H        3.8987437453    2.2377223628   -0.5334526401
H        0.3886908303   -3.3544844480    4.3572790663
25   

C       -0.1111930809    0.4083998082    1.8778434451
C        1.6169818908   -0.5496494558    3.1933458803
C       -0.9240174489   -0.6627585089    2.2492682753
C        1.1903809309    0.4867981722    2.3689902084
C        0.7426907868   -1.5923740629    3.5105850559
C        2.1632637171    1.5647232543    1.9994691637
C        2.5815913693    3.9770381383    0.0847447081
C        2.4550555003   -2.9060300112    4.7990635189
C        3.2614318032    2.6150108241    0.1870972193
N       -0.5035434975   -1.6478842255    3.0554510010
N        1.0943893294   -2.6548388743    4.3087342964
O        2.7714242589    2.2049230365    2.8511756376
O        2.3353237666    1.6271883076    0.6609239646
H       -0.4944283859    1.1703748648    1.2109108044
H        2.6231140702   -0.5394606665    3.5878620318
H       -1.9368439377   -0.7040793453    1.8656115908
H        1.7171520647    3.9163647962   -0.5832357284
H        2.2488459108    4.3135682927    1.0714092393
H        3.2841736206    4.7140633723   -0.3149110838
H        3.1607949235   -2.9516200260    3.9628950505
H        2.4889540964   -3.8651972141    5.3254730609
H        2.7626639656   -2.1203968854    5.4969060314
H        4.1366834093    2.6840691137    0.8427444579
H        3.6184708716    2.3166163685   -0.8035977289
H        0.3413653262   -3.3241020224    4.4226876508
25   

C       -0.0554133939    0.3215691196    1.7613407991
C        1.6311893514   -0.5846201496    3.1663688020
C       -0.8890187744   -0.7197595259    2.1693977814
C        1.2362900203    0.4113282767    2.2778993148
C        0.7371651106   -1.5994208307    3.5170907580
C        2.2366573867    1.4520709803    1.8829800443
C        2.5848938919    4.0588589366    0.2269725979
C        2.4034684848   -2.8610471115    4.9131230440
C        3.1463934769    2.6503707364    0.0571416727
N       -0.4988868398   -1.6652718741    3.0360517463
N        1.0574942710   -2.6221775547    4.3778976493
O        3.0168975385    1.9369441061    2.6971431882
O        2.2153311514    1.6766181279    0.5502564483
H       -0.4149826196    1.0511111268    1.0464535630
H        2.6280926438   -0.5665121881    3.5840414942
H       -1.8931971120   -0.7705757224    1.7647240544
H        1.6291452716    4.1484061283   -0.2980375800
H        2.4336631949    4.2852346900    1.2868674528
H        3.2843495457    4.7903986679   -0.1879443643
H        3.1279686916   -2.9580101219    4.0976227568
H        2.4141318652   -3.7912679908    5.4900285730
H        2.7038218123   -2.0427181844    5.5756695825
H        4.1116910743    2.5700448633    0.5694526737
H        3.3244828649    2.4607062519   -1.0060104810
H        0.2945708268   -3.2769901213    4.5084203810
25   

C       -0.0131327073    0.2326634201    1.6523120177
C        1.6473094957   -0.6079978665    3.1289485267
C       -0.8614874605   -0.7766175386    2.1073988420
C        1.2752272714    0.3374285869    2.1769973632
C        0.7388005133   -1.5931723603    3.5240680941
C        2.2928626729    1.3492863493    1.7544323251
C        2.6183559971    4.1246357442    0.3855720611
C        2.3739516440   -2.7885814167    5.0121132851
C        3.0333384074    2.7164442461   -0.0299081358
N       -0.4912666986   -1.6754540311    3.0304738091
N        1.0371828158   -2.5675279927    4.4467658053
O        3.2076253265    1.6910241694    2.4992489632
O        2.1031844690    1.7486963904    0.4769495955
H       -0.3610632569    0.9256433928    0.8963125032
H        2.6375901745   -0.5785955801    3.5617671686
H       -1.8615386753   -0.8402601317    1.6944011276
H        1.6097257941    4.3421673958    0.0216688213
H        2.6344248952    4.2223908854    1.4753686789
H        3.3113945349    4.8567756671   -0.0389496633
H        3.1081067825   -2.9356609782    4.2128952607
H        2.3686469310   -3.6862551647    5.6385190173
H        2.6732716146   -1.9381203370    5.6333862511
H        4.0505192147    2.5092629197    0.3210333950
H        3.0463503661    2.6538568600   -1.1225591964
H        0.2666841061   -3.2077189453    4.6026588311
25   

C        0.0079498301    0.1322046271    1.5457535539
C        1.6517749399   -0.6378501857    3.0786437968
C       -0.8513052227   -0.8437445438    2.0501065829
C        1.2967201392    0.2531015914    2.0689075051
C        0.7322684919   -1.5920600765    3.5215158761
C        2.3240808932    1.2414399867    1.6137058883
C        2.6697280244    4.1512835449    0.5571097536
C        2.3446275202   -2.7108657592    5.0920687028
C        2.9106865349    2.7865933304   -0.0810912968
N       -0.4945380093   -1.6929837314    3.0237365143
N        1.0148357003   -2.5135135636    4.5018487484
O        3.3513451357    1.4436901478    2.2565442791
O        1.9878642539    1.8184027493    0.4385311760
H       -0.3350653757    0.7865095701    0.7538591967
H        2.6373281243   -0.5952202939    3.5210118537
H       -1.8497048791   -0.9213359423    1.6354957874
H        1.6402481893    4.4745282083    0.3761512673
H        2.8459028872    4.1055784222    1.6361428282
H        3.3517694953    4.8892378071    0.1249137763
H        3.0850372498   -2.9097304333    4.3100059516
H        2.3265288239   -3.5701851279    5.7699054319
H        2.6448394540   -1.8276943381    5.6654403550
H        3.9476341294    2.4748135904    0.0871467258
H        2.7657419943    2.8659672198   -1.1630582951
H        0.2382432249   -3.1383626858    4.6869144421
25   

C        0.0014647528    0.0232529906    1.4471722981
C        1.6331767285   -0.6590573192    3.0337092134
C       -0.8620722238   -0.9224978194    1.9993762222
C        1.2886617472    0.1698137672    1.9688291751
C        0.7095277132   -1.5862156443    3.5229891979
C        2.3164778368    1.1413422201    1.4788156812
C        2.7401601213    4.1390549818    0.7286297699
C        2.3081457103   -2.6137532061    5.1680694581
C        2.7782792719    2.8526383788   -0.0906055031
N       -0.5130962203   -1.7157040690    3.0217504103
N        0.9826265786   -2.4480324168    4.5587150232
O        3.4312454160    1.2111947138    1.9909388769
O        1.8634430729    1.8860432065    0.4460764992
H       -0.3383535717    0.6338910402    0.6198220193
H        2.6136319782   -0.5916102272    3.4841739390
H       -1.8578818855   -1.0221889883    1.5832610495
H        1.7247787234    4.5463129278    0.7420795130
H        3.0625323288    3.9477227845    1.7566641200
H        3.4115372083    4.8809485520    0.2865759470
H        3.0537018399   -2.8562323021    4.4033844409
H        2.2842893947   -3.4341825105    5.8923200217
H        2.6055668499   -1.7004759411    5.6937470034
H        3.8002506197    2.4580221814   -0.1163860266
H        2.4892494354    3.0759387019   -1.1223792657
H        0.2046077875   -3.0621325416    4.7716543198
