29   

C        1.8051220868    4.7066096368   -3.2802509392
C        1.9096615993    5.2524712989   -1.9990987639
C        1.1981868132    3.4612495128   -3.4547636271
C        1.4218091310    4.5473492974   -0.8928424842
C        0.7108758835    2.7569248862   -2.3481322215
C        0.8485549361    3.2749993255   -1.0405837177
C        0.2759675730    2.6257793909    0.1917838203
C       -0.6919812852   -1.5255706747   -0.0005333370
C        0.2354429667   -0.8698681490   -1.0321672836
C       -1.6710174870   -0.4827446598    0.5525887782
C        0.9697188134    0.3191611146   -0.4044036820
C       -0.9171521422    0.7123829078    1.1428516091
N       -0.0019222566    1.2700659541    0.1449486554
O       -0.0859388420    3.3083949180    1.1443469275
H        2.1786888980    5.2556648727   -4.1374144333
H        2.3610587857    6.2284112261   -1.8600493470
H        1.0895820083    3.0474577899   -4.4510164337
H        1.4934006278    4.9961229768    0.0931339418
H        0.1973777743    1.8186585096   -2.5206463284
H       -0.0945175461   -1.9376890383    0.8198953663
H       -1.2453344144   -2.3491883761   -0.4629188450
H       -0.3564527152   -0.5247062662   -1.8860009327
H        0.9616500453   -1.6025997429   -1.3974795177
H       -2.3062273318   -0.9339891557    1.3212398941
H       -2.3190822535   -0.1310845613   -0.2567533584
H        1.6386088185    0.7716245305   -1.1402212104
H        1.6067500846   -0.0439152211    0.4093676336
H       -1.6476897821    1.4606481458    1.4695511546
H       -0.3473247328    0.3961148644    2.0231835377
29   

C        1.8785085544    4.6475286378   -3.2837345094
C        2.0457693895    5.1570742894   -1.9934323227
C        1.1336027202    3.4817470349   -3.4782387608
C        1.4788441244    4.4951837114   -0.8980696840
C        0.5677955544    2.8210293499   -2.3822096745
C        0.7577989427    3.3052174171   -1.0702888146
C        0.1226482582    2.6820841782    0.1431417382
C       -0.6061605739   -1.5052701471   -0.0002298008
C        0.2652286198   -0.8015332668   -1.0491302677
C       -1.6089877547   -0.5085639202    0.5939228082
C        0.9714332851    0.4083329260   -0.4293109268
C       -0.8855935536    0.7065819708    1.1815933607
N       -0.0206725747    1.3103150615    0.1654569471
O       -0.3378685979    3.3865271635    1.0344786675
H        2.3137311297    5.1634282188   -4.1323730451
H        2.6077417574    6.0714236140   -1.8394750005
H        0.9829317822    3.0962879745   -4.4803701187
H        1.5977041474    4.9105076953    0.0978564989
H       -0.0388052124    1.9392288884   -2.5549294494
H        0.0298650827   -1.9036707400    0.7976481123
H       -1.1401426819   -2.3441831250   -0.4578898104
H       -0.3640358796   -0.4696231964   -1.8811981209
H        1.0081974176   -1.5010044185   -1.4446992882
H       -2.2056559394   -0.9944208798    1.3722812099
H       -2.2918088294   -0.1712225266   -0.1927048166
H        1.5967566610    0.8932686782   -1.1821712546
H        1.6494803946    0.0623558920    0.3582640291
H       -1.6363650483    1.4186168801    1.5413650961
H       -0.2792512068    0.4007757807    2.0408096448
29   

C        1.9172416576    4.5730242995   -3.2657272547
C        2.1254319322    5.0364168146   -1.9633478866
C        1.0663839800    3.4870283037   -3.4895601930
C        1.4897237337    4.4093908162   -0.8852766184
C        0.4321386512    2.8611190049   -2.4107181083
C        0.6528598945    3.3047590175   -1.0913114293
C       -0.0369390100    2.6934606582    0.0982890449
C       -0.5404263396   -1.5007785322    0.0025937872
C        0.2877759284   -0.7544774315   -1.0523567018
C       -1.5560378259   -0.5437349906    0.6396243873
C        0.9740736674    0.4646211921   -0.4284131901
C       -0.8519470888    0.6791392398    1.2351654028
N       -0.0318494650    1.3230502510    0.2065025505
O       -0.6073328576    3.4035325141    0.9178422038
H        2.4061335323    5.0621657775   -4.1008928397
H        2.7734422659    5.8876471831   -1.7871450579
H        0.8901682742    3.1358358568   -4.5000899865
H        1.6407344723    4.7847927041    0.1218931016
H       -0.2449543439    2.0343772779   -2.5954990934
H        0.1243654144   -1.8966963266    0.7778870402
H       -1.0620541823   -2.3452382378   -0.4591258572
H       -0.3690131349   -0.4258218968   -1.8642236355
H        1.0406257120   -1.4257626335   -1.4770148391
H       -2.1211059668   -1.0611777612    1.4211668099
H       -2.2660951233   -0.2099492564   -0.1241920163
H        1.5648691398    0.9792843012   -1.1893448704
H        1.6823404505    0.1271969059    0.3358423834
H       -1.6124362642    1.3600277182    1.6323545987
H       -0.2140923857    0.3734449209    2.0711229122
29   

C        1.9537025509    4.5060363942   -3.2911410687
C        2.2165423145    4.9180628913   -1.9810839234
C        1.0036880881    3.5085562189   -3.5293622972
C        1.5329467946    4.3300876313   -0.9102712197
C        0.3221703023    2.9216754021   -2.4574199291
C        0.5885659209    3.3207272298   -1.1339230950
C       -0.1414099641    2.7241810341    0.0409898917
C       -0.4752309975   -1.4453246099    0.0314761341
C        0.3247732846   -0.6782321844   -1.0309009785
C       -1.4862187559   -0.5070754189    0.7042570613
C        1.0098087986    0.5425335345   -0.4087693585
C       -0.7804055549    0.7150732286    1.2999776514
N        0.0032020765    1.3776856913    0.2551823682
O       -0.8203332810    3.4309238468    0.7753851524
H        2.4795888964    4.9653034896   -4.1207853889
H        2.9450487405    5.6988926669   -1.7935985720
H        0.7894652075    3.1950371882   -4.5449350847
H        1.7285616501    4.6627548794    0.1039778524
H       -0.4242248819    2.1580455549   -2.6475310550
H        0.2094092745   -1.8454882477    0.7869887277
H       -0.9987065350   -2.2884450969   -0.4306465389
H       -0.3513441421   -0.3477351598   -1.8260541679
H        1.0761847866   -1.3363722753   -1.4780881842
H       -2.0281517415   -1.0408922464    1.4911034721
H       -2.2169560286   -0.1704948123   -0.0386705260
H        1.5748687082    1.0726111196   -1.1790508291
H        1.7400497512    0.2089318366    0.3361540186
H       -1.5351733666    1.3810826748    1.7313775656
H       -0.1157159221    0.4048397720    2.1129004694
29   

C        1.9895112686    4.4306540370   -3.3297755943
C        2.2932149529    4.7752292625   -2.0090593499
C        0.9579354266    3.5244596070   -3.5926018458
C        1.5668771688    4.2125830212   -0.9528467427
C        0.2343294895    2.9629135751   -2.5347439805
C        0.5360635878    3.2990662160   -1.2029874935
C       -0.2392574638    2.7103111832   -0.0512225979
C       -0.4120256593   -1.4090488977    0.0438562238
C        0.3943534769   -0.6292089914   -1.0051471363
C       -1.4336586125   -0.4830378409    0.7191646165
C        1.0637222700    0.5939137913   -0.3700211416
C       -0.7383158886    0.7391765440    1.3275500731
N        0.0382313131    1.4124189910    0.2849942795
O       -1.0519162884    3.3874363020    0.5650805970
H        2.5481667715    4.8707035328   -4.1483488196
H        3.0872396352    5.4839742361   -1.8022260241
H        0.7139095705    3.2618370484   -4.6158647763
H        1.7970254753    4.4911855329    0.0701730516
H       -0.5720967489    2.2676173074   -2.7415075364
H        0.2685577798   -1.8130280162    0.8009020911
H       -0.9273702762   -2.2505030815   -0.4303477236
H       -0.2759462193   -0.2983818743   -1.8052309466
H        1.1548285946   -1.2789951291   -1.4491866344
H       -1.9756636627   -1.0270804958    1.4988738859
H       -2.1632458373   -0.1454013348   -0.0245501190
H        1.6282657742    1.1341132302   -1.1342838469
H        1.7909606943    0.2659115003    0.3802092534
H       -1.4945071302    1.3969348962    1.7688069037
H       -0.0699005717    0.4269173283    2.1365381737
29   

C        1.9597772500    4.4102608708   -3.3030147100
C        2.3244892312    4.6304121885   -1.9713058536
C        0.8475311245    3.6161170412   -3.5969084471
C        1.5784828776    4.0548856240   -0.9359369287
C        0.1047950338    3.0418474898   -2.5593022009
C        0.4674564300    3.2511289130   -1.2180446058
C       -0.3382812286    2.6448241007   -0.0958331504
C       -0.3290288714   -1.4195522349    0.0978551206
C        0.4854034006   -0.6210901432   -0.9315011212
C       -1.3826361653   -0.5166779813    0.7561661001
C        1.1142717337    0.6164796083   -0.2818339034
C       -0.7228576694    0.7185157757    1.3777609900
N        0.0518520592    1.4085301857    0.3454717757
O       -1.2834748445    3.2495576759    0.3933961598
H        2.5335601188    4.8603122351   -4.1055309745
H        3.1814626756    5.2529388459   -1.7397171002
H        0.5555866925    3.4506390935   -4.6279159333
H        1.8581498465    4.2372872141    0.0962021420
H       -0.7646167841    2.4350470434   -2.7887204562
H        0.3432407771   -1.8133214664    0.8675127193
H       -0.8180015503   -2.2690392011   -0.3898190472
H       -0.1735071709   -0.3032139463   -1.7463887264
H        1.2688112076   -1.2542658199   -1.3593002003
H       -1.9267057204   -1.0734409512    1.5253552196
H       -2.1060484379   -0.1927858496    0.0002879504
H        1.6808799568    1.1698133656   -1.0354471768
H        1.8321242006    0.3069738892    0.4850161820
H       -1.4954252356    1.3612945299    1.8127681628
H       -0.0581408313    0.4184863273    2.1943469236
29   

C        2.0135240807    4.4404972004   -3.3394677143
C        2.4312116248    4.4847831919   -2.0060939049
C        0.8140026941    3.8041185043   -3.6706060510
C        1.6517733947    3.8891113771   -1.0073823749
C        0.0384194645    3.2094883878   -2.6691505498
C        0.4557238615    3.2344389562   -1.3281257146
C       -0.4009551480    2.6217430880   -0.2491176929
C       -0.2782333834   -1.3978584111    0.1726472892
C        0.5546531330   -0.6283941789   -0.8638865175
C       -1.3707388395   -0.4891311433    0.7545086592
C        1.1374277194    0.6514739795   -0.2531815423
C       -0.7542778735    0.7849496735    1.3401303433
N        0.0389815591    1.4471841895    0.3035105214
O       -1.4451524747    3.1586354438    0.0978292808
H        2.6131458920    4.9064166580   -4.1135248532
H        3.3553256650    4.9878352843   -1.7443380106
H        0.4791083927    3.7780536704   -4.7015079709
H        1.9737852326    3.9386779172    0.0272550756
H       -0.9007000820    2.7304425010   -2.9253827558
H        0.3751077328   -1.7432743745    0.9808093182
H       -0.7340277782   -2.2778704842   -0.2925529973
H       -0.0833917874   -0.3615033893   -1.7131063655
H        1.3638058310   -1.2632974582   -1.2377533867
H       -1.9291323075   -1.0220622829    1.5302710022
H       -2.0748461780   -0.2137458852   -0.0380142754
H        1.7109769155    1.1804222264   -1.0186682997
H        1.8392158454    0.3949393920    0.5472906153
H       -1.5502522745    1.4312936065    1.7249071402
H       -0.1095098761    0.5337855258    2.1885639789
29   

C        2.0040072379    4.4822143057   -3.3445067333
C        2.4607582823    4.3647151387   -2.0288672209
C        0.7514330829    3.9697206630   -3.6920720192
C        1.6678471408    3.7296541807   -1.0656286703
C       -0.0370671291    3.3353888789   -2.7257706678
C        0.4186642098    3.1916231022   -1.4044098548
C       -0.4615813800    2.5462008064   -0.3670669440
C       -0.2496548718   -1.3958369559    0.2697919214
C        0.5921126132   -0.6574378866   -0.7817112158
C       -1.3544043417   -0.4743421263    0.8062017248
C        1.1566792901    0.6500643952   -0.2127201805
C       -0.7504336177    0.8229956523    1.3527195190
N        0.0449420713    1.4570684856    0.3002046945
O       -1.5792037542    2.9909078274   -0.1362023852
H        2.6141969372    4.9785566333   -4.0908920428
H        3.4260671025    4.7737571553   -1.7524430456
H        0.3850968633    4.0707634637   -4.7075436844
H        2.0224249231    3.6585755810   -0.0429621765
H       -1.0177502589    2.9554409810   -2.9931099290
H        0.3951374579   -1.7093363848    1.0975042732
H       -0.6944863718   -2.2939542826   -0.1708513558
H       -0.0364464081   -0.4275113907   -1.6487246098
H        1.4109669049   -1.2989272844   -1.1216788603
H       -1.9186230294   -0.9829550712    1.5939204966
H       -2.0511134699   -0.2312336242   -0.0033969970
H        1.7303197796    1.1521766655   -0.9953676564
H        1.8531198050    0.4317316829    0.6035832596
H       -1.5513341734    1.4789290510    1.7104693091
H       -0.1102707472    0.6047889090    2.2136211994
29   

C        1.9520995564    4.5616886769   -3.2966203579
C        2.4479142217    4.2845383020   -2.0202558588
C        0.6635370730    4.1491854273   -3.6430007992
C        1.6581560684    3.5898808287   -1.0962458673
C       -0.1211860291    3.4548750624   -2.7158434402
C        0.3702120281    3.1489363833   -1.4342014986
C       -0.5136245038    2.4340216378   -0.4489236937
C       -0.2068805878   -1.4248393698    0.4093632092
C        0.6235594061   -0.7225142976   -0.6741456658
C       -1.3228122524   -0.4943627043    0.9040898861
C        1.1701534593    0.6178455166   -0.1674011067
C       -0.7339407752    0.8331124151    1.3926495384
N        0.0519997049    1.4359654201    0.3146187933
O       -1.6806583468    2.7777435463   -0.3024833382
H        2.5601009190    5.1039098002   -4.0122304272
H        3.4419673111    4.6165173834   -1.7424520626
H        0.2664299811    4.3729971838   -4.6267755531
H        2.0482666457    3.4027620819   -0.1016267888
H       -1.1284051456    3.1515854672   -2.9834156803
H        0.4422037142   -1.6929680712    1.2494978595
H       -0.6401001747   -2.3470677525    0.0086905906
H       -0.0091374520   -0.5410960915   -1.5496569665
H        1.4510930990   -1.3668121381   -0.9867783339
H       -1.8813706796   -0.9746057825    1.7132798114
H       -2.0220837251   -0.2958800009    0.0844576829
H        1.7270116345    1.0877587532   -0.9810259203
H        1.8764607545    0.4484544313    0.6520656699
H       -1.5417762884    1.4951510020    1.7228632497
H       -0.0907675919    0.6598972683    2.2614430793
29   

C        1.9576457113    4.6534319515   -3.3048709755
C        2.4834967901    4.2306651071   -2.0824014691
C        0.6397863910    4.3349451601   -3.6362516185
C        1.6946936394    3.4849490725   -1.1979881731
C       -0.1435973608    3.5894616824   -2.7488446726
C        0.3730958681    3.1380447618   -1.5192833069
C       -0.5151527882    2.3495080386   -0.5965922448
C       -0.1957482709   -1.4182320122    0.4911359285
C        0.6390713299   -0.7725137504   -0.6224431897
C       -1.3094753937   -0.4601247354    0.9335643271
C        1.1886044577    0.5897315981   -0.1819590754
C       -0.7168890838    0.8878903384    1.3592035818
N        0.0777577817    1.4404006854    0.2603439713
O       -1.7123191547    2.6048727051   -0.5290699885
H        2.5656332113    5.2342047569   -3.9895688144
H        3.5016996948    4.4892181432   -1.8142183974
H        0.2192990517    4.6686875775   -4.5782793939
H        2.1177868785    3.1954378182   -0.2425233503
H       -1.1708836222    3.3555539426   -3.0104228869
H        0.4496025827   -1.6466073502    1.3457056556
H       -0.6308185542   -2.3574781107    0.1343260616
H        0.0087224238   -0.6326947592   -1.5072663981
H        1.4653808531   -1.4335656732   -0.9016493081
H       -1.8743847640   -0.8977463013    1.7622056298
H       -2.0038918978   -0.2999662194    0.1014170832
H        1.7402653909    1.0144013020   -1.0234635841
H        1.8982358723    0.4596609174    0.6418436470
H       -1.5235432659    1.5693644854    1.6508507754
H       -0.0802235072    0.7545647462    2.2396938605
29   

C        1.9379970169    4.7666770939   -3.2793090869
C        2.4990911296    4.2038504615   -2.1323673908
C        0.5950897963    4.5326157032   -3.5737638984
C        1.7207565962    3.4034737907   -1.2870287281
C       -0.1775005257    3.7324551019   -2.7257221229
C        0.3695258337    3.1418234348   -1.5677926079
C       -0.5160935644    2.2740913200   -0.7136222254
C       -0.2138863844   -1.4025498011    0.6069666755
C        0.6336748227   -0.8211195026   -0.5307169780
C       -1.3294996233   -0.4182117169    0.9791069305
C        1.1836104282    0.5613726274   -0.1601432319
C       -0.7380478035    0.9501016407    1.3384935563
N        0.0788736466    1.4458954107    0.2283664508
O       -1.7305411677    2.4451643945   -0.7227473094
H        2.5386701429    5.3885471654   -3.9336927176
H        3.5385420245    4.3956100601   -1.8909665281
H        0.1469383981    4.9712409964   -4.4582887667
H        2.1843815477    3.0175300010   -0.3869458873
H       -1.2218104392    3.5614109696   -2.9682202697
H        0.4206492276   -1.5838309262    1.4806673624
H       -0.6472575845   -2.3592277129    0.2974810638
H        0.0123021410   -0.7279427657   -1.4279722556
H        1.4604658467   -1.4985653977   -0.7658160546
H       -1.9085309525   -0.8076523423    1.8218588013
H       -2.0110032062   -0.3030748449    0.1289926966
H        1.7361482027    0.9360379332   -1.0247368260
H        1.8907469211    0.4741948211    0.6714587378
H       -1.5473670300    1.6491441964    1.5764488567
H       -0.1186226092    0.8636981882    2.2369004209
29   

C        1.8843181490    4.6142152889   -3.5347712699
C        2.1087693917    3.2655955289   -3.2594412676
C        0.8792083546    5.2956691806   -2.8508195187
C        1.3349775302    2.6027751988   -2.2986016715
C        0.1092918517    4.6286178502   -1.8925895992
C        0.3195241318    3.2657482849   -1.5883655174
C       -0.5218261705    2.6362666259   -0.5067391755
C        0.1629152339   -1.4314044078    0.6245739678
C        1.2845707571   -0.5652016655    0.0355368186
C       -1.1946186858   -0.9627523949    0.0853277000
C        1.0245151469    0.9123479411    0.3452777668
C       -1.4061411369    0.5279928560    0.3652741957
N       -0.2880606062    1.3022504040   -0.1759871354
O       -1.5363817386    3.1995287549   -0.1091435377
H        2.4821428594    5.1281742778   -4.2792061888
H        2.8799011003    2.7270020003   -3.7986701949
H        0.6926402824    6.3432889508   -3.0589118722
H        1.5230572002    1.5468214286   -2.1553995127
H       -0.6644561185    5.1810381783   -1.3684179513
H        0.1708550516   -1.3457133847    1.7166235961
H        0.3248407810   -2.4829851878    0.3671493578
H        1.3270741125   -0.7101698702   -1.0488658676
H        2.2479178412   -0.8688160040    0.4568226874
H       -2.0015596136   -1.5423852650    0.5444974124
H       -1.2309445834   -1.1306846495   -0.9958545313
H        1.8350641522    1.5289502696   -0.0507436654
H        1.0319011643    1.0558292972    1.4312902096
H       -2.3527840763    0.8435132758   -0.0871618953
H       -1.4788592334    0.6978255371    1.4451077092
29   

C        1.9442731505    4.5898244072   -3.4600813087
C        2.0409934117    3.2070855768   -3.2987280927
C        1.0114447928    5.3063177871   -2.7105684795
C        1.2120727534    2.5446799675   -2.3850198052
C        0.1859773450    4.6394970667   -1.7992914335
C        0.2739641300    3.2451463553   -1.6088681681
C       -0.6309372608    2.5946446853   -0.5969014588
C        0.2316531710   -1.3936547670    0.6690273276
C        1.3069855206   -0.5094071315    0.0239001933
C       -1.1534606270   -0.9865410188    0.1514994504
C        1.0102455586    0.9684911212    0.2974626532
C       -1.4113017377    0.5022115667    0.4007209834
N       -0.3338071959    1.3029228027   -0.1837076268
O       -1.6967363525    3.1201332907   -0.2940672071
H        2.5837506939    5.1038557561   -4.1690130848
H        2.7537372880    2.6436078932   -3.8903259675
H        0.9226470302    6.3798669563   -2.8339388539
H        1.2919362504    1.4664752862   -2.3181024136
H       -0.5366826157    5.2109092390   -1.2249462975
H        0.2645685732   -1.2749468024    1.7574937746
H        0.4224107730   -2.4464983314    0.4377943692
H        1.3232908631   -0.6854227903   -1.0565234754
H        2.2914861214   -0.7699980016    0.4246104407
H       -1.9285532949   -1.5823430048    0.6436427645
H       -1.2090071072   -1.1827972040   -0.9241422537
H        1.7880725698    1.5925171209   -0.1489609848
H        1.0535665703    1.1471949213    1.3773283419
H       -2.3796434197    0.7697133817   -0.0364842027
H       -1.4663513703    0.6958932550    1.4774496332
29   

C        2.0244826770    4.5798107267   -3.3812296675
C        2.0125687832    3.1844461799   -3.3307036469
C        1.1474835128    5.3070737450   -2.5749326190
C        1.1307516261    2.5196872818   -2.4700307991
C        0.2688256537    4.6376424199   -1.7165249781
C        0.2538436721    3.2319678160   -1.6370129072
C       -0.7185122337    2.5597071338   -0.7068303022
C        0.2716490072   -1.3418498384    0.6906432728
C        1.3120282463   -0.4458232037    0.0056055132
C       -1.1333760189   -0.9749615442    0.1974744548
C        0.9914271974    1.0304984723    0.2595238525
C       -1.4215054788    0.5107256915    0.4314669128
N       -0.3741550529    1.3262138034   -0.1870526446
O       -1.8289440860    3.0432438479   -0.5179149415
H        2.7038797501    5.0964055001   -4.0500374900
H        2.6807659429    2.6151585811   -3.9670417202
H        1.1415251369    6.3905289215   -2.6161705415
H        1.1198184263    1.4357149622   -2.4744718961
H       -0.4172498963    5.2112556905   -1.1011367383
H        0.3260529950   -1.2034287737    1.7758942751
H        0.4809350425   -2.3940634283    0.4729264331
H        1.3068632105   -0.6403977813   -1.0717031340
H        2.3111850514   -0.6784057446    0.3868193173
H       -1.8835172577   -1.5817723122    0.7141942689
H       -1.2070388509   -1.1881936689   -0.8739065022
H        1.7449220292    1.6583797578   -0.2213237470
H        1.0620737461    1.2319788225    1.3338573519
H       -2.4062908836    0.7457616503    0.0129053958
H       -1.4582607390    0.7190625941    1.5060896963
29   

C        2.0563993942    4.5566341042   -3.2888254891
C        1.9736791775    3.1633323949   -3.3478500197
C        1.2162779728    5.2636436554   -2.4258004187
C        1.0575696644    2.4799349764   -2.5394217527
C        0.3030651507    4.5754848557   -1.6195364856
C        0.2217359212    3.1717670371   -1.6503990003
C       -0.7972227827    2.4656673114   -0.7978951973
C        0.3209091591   -1.3298212564    0.7169883758
C        1.3227446225   -0.4144041972    0.0002405314
C       -1.1056522073   -0.9947931132    0.2637476384
C        0.9794813287    1.0563786511    0.2561074834
C       -1.4196904435    0.4847870448    0.5041908061
N       -0.4063923041    1.3168197263   -0.1485420159
O       -1.9472899324    2.8832148664   -0.7330793816
H        2.7615951230    5.0884342822   -3.9178348967
H        2.6129346573    2.6119024321   -4.0281385858
H        1.2644096292    6.3460600713   -2.3850123462
H        0.9877478045    1.4004321769   -2.6159892896
H       -0.3598693148    5.1305132090   -0.9633857312
H        0.4032662859   -1.1870577186    1.7998760198
H        0.5463161324   -2.3780118518    0.4959203148
H        1.2915463517   -0.6133412276   -1.0758337036
H        2.3369520285   -0.6244324585    0.3538147437
H       -1.8270751339   -1.6172462700    0.8022456727
H       -1.2053119601   -1.2117024927   -0.8048778929
H        1.7055674136    1.6942990416   -0.2527019995
H        1.0795313374    1.2677810878    1.3261222325
H       -2.4232636812    0.6949517522    0.1187802755
H       -1.4271760206    0.6956658401    1.5787630019
29   

C        2.0989296547    4.5257178879   -3.2484955269
C        1.9387690346    3.1466007986   -3.4083250293
C        1.3076736146    5.2131375124   -2.3245316264
C        0.9933970629    2.4570590410   -2.6399486660
C        0.3647487468    4.5191041685   -1.5582315707
C        0.2081405226    3.1291489630   -1.6930707911
C       -0.8442122980    2.4050396348   -0.8950834800
C        0.3295482783   -1.2700579734    0.7522146699
C        1.3086388916   -0.3506999390    0.0088014398
C       -1.1112556380   -0.9421211147    0.3387155818
C        0.9655332268    1.1194879015    0.2679700026
C       -1.4251248825    0.5364039795    0.5877354039
N       -0.4330125161    1.3659064177   -0.0996549513
O       -2.0180241322    2.7482669349   -0.9600292397
H        2.8264967057    5.0627934054   -3.8468052243
H        2.5406051368    2.6123076094   -4.1348625801
H        1.4163610022    6.2854813578   -2.2067769739
H        0.8620894642    1.3902342969   -2.7851365393
H       -0.2626446132    5.0582615781   -0.8558932569
H        0.4406933466   -1.1266871910    1.8323940630
H        0.5538033201   -2.3172723912    0.5253323501
H        1.2510450389   -0.5520365936   -1.0657836251
H        2.3326897775   -0.5548964162    0.3364930183
H       -1.8140974125   -1.5681373626    0.8972010486
H       -1.2398872532   -1.1599776247   -0.7267242198
H        1.6736086288    1.7562735479   -0.2675357307
H        1.0950460572    1.3397047926    1.3329711719
H       -2.4426780821    0.7421086171    0.2388666080
H       -1.3976829125    0.7496214705    1.6613825343
29   

C        2.1036019569    4.4907738551   -3.2036404372
C        1.8690548277    3.1392554999   -3.4732413834
C        1.3690973522    5.1375508462   -2.2057264673
C        0.9046654996    2.4360098669   -2.7418843754
C        0.4066549811    4.4304544079   -1.4763509608
C        0.1739387177    3.0681984938   -1.7274923633
C       -0.8892720635    2.3177926723   -0.9654632325
C        0.3475977141   -1.2116572015    0.7975672497
C        1.3039800283   -0.2719122228    0.0488840413
C       -1.1053922306   -0.9003435874    0.4119668155
C        0.9428594660    1.1920030400    0.3203676867
C       -1.4329054318    0.5727707020    0.6766053384
N       -0.4638988048    1.4114957359   -0.0312514368
O       -2.0758168345    2.5442643912   -1.1645104033
H        2.8460557363    5.0386119463   -3.7732270834
H        2.4284881388    2.6377342303   -4.2549439390
H        1.5378050795    6.1890032289   -2.0017967286
H        0.7163555378    1.3914457503   -2.9654909972
H       -0.1748950559    4.9382282955   -0.7140716261
H        0.4742854737   -1.0773276826    1.8771258951
H        0.5825419165   -2.2534823180    0.5569739845
H        1.2357050061   -0.4666423387   -1.0264087735
H        2.3351495716   -0.4631861847    0.3616719462
H       -1.7894917104   -1.5393397917    0.9788836275
H       -1.2508124642   -1.1129321583   -0.6524788636
H        1.6330725660    1.8407370898   -0.2249553378
H        1.0826439667    1.4127199226    1.3838932223
H       -2.4613764308    0.7713797794    0.3572408550
H       -1.3812269011    0.7818372461    1.7500901107
29   

C        2.0565430653    4.4477698203   -3.1558480806
C        1.7403814440    3.1434432992   -3.5480787096
C        1.4013646252    5.0234813702   -2.0632461687
C        0.7716494046    2.4161648933   -2.8466074454
C        0.4342730226    4.2931012681   -1.3634903266
C        0.1149901674    2.9794732965   -1.7455068607
C       -0.9363997098    2.1890865916   -1.0064844303
C        0.3889959887   -1.1655494615    0.8993528759
C        1.3185121392   -0.1964908682    0.1530971244
C       -1.0725166417   -0.9068261363    0.5051820892
C        0.9037616828    1.2563944828    0.4095583435
C       -1.4487485654    0.5570717435    0.7558126565
N       -0.5057580655    1.4164723704    0.0385988742
O       -2.1141816462    2.2558904244   -1.3332671426
H        2.8025349186    5.0141661100   -3.7021949101
H        2.2405119294    2.6973161006   -4.4003704662
H        1.6367129646    6.0380866688   -1.7619250035
H        0.5210157399    1.4085130383   -3.1606233471
H       -0.0814615575    4.7453651936   -0.5231289359
H        0.5046201399   -1.0223670992    1.9789510429
H        0.6610823086   -2.1997545053    0.6649941641
H        1.2667157756   -0.4004607586   -0.9215753636
H        2.3530588949   -0.3494212341    0.4755757717
H       -1.7371143428   -1.5634308046    1.0751265251
H       -1.2067847026   -1.1330403254   -0.5579926792
H        1.5752066703    1.9236296742   -0.1373218575
H        1.0242860623    1.4928238101    1.4719908055
H       -2.4832771144    0.7235528646    0.4375929447
H       -1.4028602118    0.7785045290    1.8270499046
29   

C        2.0604694149    4.4440652852   -3.1556830862
C        1.6625147219    3.2037609020   -3.6644145718
C        1.4914396842    4.9263195000   -1.9730880862
C        0.6971699379    2.4466717833   -2.9903364219
C        0.5275379306    4.1668962550   -1.3003987570
C        0.1238952267    2.9175151631   -1.8028996571
C       -0.9153942193    2.0836017344   -1.0971213059
C        0.4074771530   -1.1131111265    0.9826491316
C        1.3377823511   -0.1361120579    0.2473897376
C       -1.0472602878   -0.8944933364    0.5417370784
C        0.8830217487    1.3125729914    0.4596732824
C       -1.4592262881    0.5658725442    0.7525164175
N       -0.5168262311    1.4292583557    0.0394896749
O       -2.0533732110    1.9966185276   -1.5402649484
H        2.8040060888    5.0333746868   -3.6807273030
H        2.0966600598    2.8304487293   -4.5851316920
H        1.7921030168    5.8911897832   -1.5803658009
H        0.3823067870    1.4896076627   -3.3928803691
H        0.0812230864    4.5464867730   -0.3875571947
H        0.4876960259   -0.9488866474    2.0624050632
H        0.7090685406   -2.1448306040    0.7748383171
H        1.3246261103   -0.3622180651   -0.8241457218
H        2.3649232164   -0.2590882765    0.6044188254
H       -1.7140548767   -1.5537998156    1.1059264165
H       -1.1466698988   -1.1440302051   -0.5201367114
H        1.5563634355    1.9803900080   -0.0837077391
H        0.9649179701    1.5758975295    1.5194076804
H       -2.4890459336    0.7078629943    0.4079659240
H       -1.4433672315    0.8100403484    1.8196499365
29   

C        1.8501891595    4.4523161600   -3.1940660956
C        0.5185081622    4.5713999416   -2.7843851465
C        2.7419270978    3.6775802040   -2.4462220829
C        0.0784906654    3.9138730771   -1.6296048420
C        2.2998972118    3.0201625338   -1.2926830200
C        0.9593508783    3.1269401888   -0.8775414477
C        0.4508480617    2.4438189795    0.3644946993
C       -1.2071236217   -1.1875490524    0.0749883684
C       -0.6637618363   -0.4025451515   -1.1283793663
C       -1.2896917843   -0.2768344683    1.3084486143
C        0.6866006475    0.2437798407   -0.7960666334
C        0.0739894563    0.3585588551    1.5973269517
N        0.5268349420    1.0730192780    0.4028019599
O       -0.0086205766    3.0988394823    1.2918109289
H        2.1919857790    4.9659447944   -4.0857805207
H       -0.1732690561    5.1788969229   -3.3570556310
H        3.7773428060    3.5915362962   -2.7562241248
H       -0.9522151302    4.0187942164   -1.3066933233
H        2.9970004933    2.4288145944   -0.7088160771
H       -0.5417329852   -2.0302525302    0.2900830067
H       -2.1980486227   -1.5905165249   -0.1581042060
H       -1.3784423981    0.3821952699   -1.3986687635
H       -0.5549264420   -1.0685513727   -1.9898925428
H       -1.6243485153   -0.8510405090    2.1778326155
H       -2.0226319183    0.5167229412    1.1268300465
H        1.0296786149    0.8049238637   -1.6684163446
H        1.4340401091   -0.5327249441   -0.6025835185
H       -0.0066024787    1.0223414036    2.4648117773
H        0.8014653483   -0.4171675272    1.8573482339
29   

C        1.8805562226    4.5310230310   -3.1485647303
C        0.5728828914    4.7477744701   -2.7042235258
C        2.7026543075    3.6234635424   -2.4746127709
C        0.0856306654    4.0526737700   -1.5912064941
C        2.2138511458    2.9287565553   -1.3625750768
C        0.8909203757    3.1245347830   -0.9182011646
C        0.3294387656    2.4302020805    0.2927165648
C       -1.1410846164   -1.2576488749    0.1695986437
C       -0.6365680614   -0.4990188192   -1.0663266938
C       -1.2405203335   -0.3054154882    1.3694704357
C        0.6941517796    0.2054093613   -0.7746733172
C        0.1058248257    0.3820417837    1.6189259287
N        0.5249391812    1.0711664282    0.3972186980
O       -0.2424150680    3.0717040020    1.1662289529
H        2.2590066002    5.0734051847   -4.0078525759
H       -0.0634294177    5.4606590102   -3.2165266796
H        3.7219837581    3.4645354783   -2.8082000127
H       -0.9246836607    4.2370774912   -1.2399553418
H        2.8644335049    2.2414348363   -0.8326759561
H       -0.4463627598   -2.0700748616    0.4070407488
H       -2.1207958712   -1.7001730511   -0.0378773971
H       -1.3807335906    0.2507293406   -1.3558409304
H       -0.5144786224   -1.1911406199   -1.9052072482
H       -1.5482511347   -0.8574262953    2.2627884960
H       -2.0001210162    0.4576494297    1.1673113034
H        0.9973923120    0.7491045055   -1.6720247876
H        1.4729165488   -0.5364006290   -0.5689432146
H        0.0154302732    1.0733989675    2.4637427073
H        0.8599360274   -0.3613422689    1.8967668177
29   

C        1.9376477088    4.6024056176   -3.1052366134
C        0.6597671499    4.9009768446   -2.6250775001
C        2.6759778728    3.5711112126   -2.5192827539
C        0.1165237223    4.1620165922   -1.5677071882
C        2.1315705472    2.8326776372   -1.4626283493
C        0.8294446242    3.1020724471   -0.9897505518
C        0.2101696836    2.3915637721    0.1829030555
C       -1.0915165872   -1.3332907756    0.2658952991
C       -0.6327229031   -0.6143946274   -1.0099510293
C       -1.2015983042   -0.3310596536    1.4227152701
C        0.6790312999    0.1445735986   -0.7749348873
C        0.1271626603    0.4071268534    1.6179648854
N        0.5103726477    1.0558023403    0.3624348831
O       -0.4541208258    3.0147638823    1.0035873434
H        2.3597903702    5.1785632195   -3.9210791714
H        0.0901325346    5.7117573748   -3.0651887963
H        3.6762056490    3.3514649564   -2.8754501147
H       -0.8689809126    4.4146812827   -1.1889673116
H        2.7314052275    2.0592506076   -0.9957722356
H       -0.3673123945   -2.1121503341    0.5264137655
H       -2.0600113141   -1.8146206007    0.0953111661
H       -1.4059020515    0.0979354863   -1.3174575440
H       -0.5030077170   -1.3379591626   -1.8207166660
H       -1.4786389627   -0.8507032844    2.3449658454
H       -1.9875947622    0.3986625885    1.1991127362
H        0.9382529087    0.6616267692   -1.7013162141
H        1.4875379564   -0.5616593712   -0.5588896909
H        0.0289836419    1.1337904101    2.4318298423
H        0.9072339888   -0.3003321992    1.9169716805
29   

C        1.9962357965    4.6922614104   -3.0681432950
C        0.7560048229    5.0577074171   -2.5403909221
C        2.6430546172    3.5508480250   -2.5900029268
C        0.1566419748    4.2747674624   -1.5470713490
C        2.0430536979    2.7682799412   -1.5970505923
C        0.7680906892    3.0993706704   -1.0844893482
C        0.0934719097    2.3673443462    0.0458908221
C       -1.0412494930   -1.3818085804    0.3746458246
C       -0.6362096006   -0.7170833931   -0.9468046671
C       -1.1661897261   -0.3204903319    1.4750783192
C        0.6514098761    0.0994678291   -0.7835560233
C        0.1391293391    0.4730975551    1.6028131391
N        0.4849115239    1.0651225231    0.3085310300
O       -0.6531413539    2.9673497656    0.8122298434
H        2.4623040578    5.3022738734   -3.8339203694
H        0.2590401614    5.9545811280   -2.8928025842
H        3.6191108840    3.2805557436   -2.9770457275
H       -0.7980106965    4.5855681861   -1.1338775043
H        2.5928564550    1.9191548645   -1.2081623933
H       -0.2832159048   -2.1180757005    0.6613597354
H       -1.9943732685   -1.9063586249    0.2513710585
H       -1.4414508617   -0.0500339358   -1.2730679786
H       -0.4977247328   -1.4776088622   -1.7215253685
H       -1.4086348726   -0.7962464561    2.4301212751
H       -1.9817533652    0.3674964704    1.2262870020
H        0.8607608024    0.5800495902   -1.7419128807
H        1.4919260078   -0.5651226820   -0.5576577526
H        0.0280541350    1.2421600305    2.3750766557
H        0.9475889469   -0.1890852799    1.9287496239
29   

C        2.0467096333    4.7868500297   -3.0195126654
C        0.8528156079    5.2003125161   -2.4265999992
C        2.5978796743    3.5518842776   -2.6747596632
C        0.2017666280    4.3728056510   -1.5046811491
C        1.9472224377    2.7240210345   -1.7527706683
C        0.7089210699    3.1030459687   -1.1822024210
C       -0.0175743968    2.3397513217   -0.1006412949
C       -0.9907945157   -1.4163054106    0.4929082105
C       -0.6335531773   -0.8193557698   -0.8727004549
C       -1.1450169619   -0.2916290755    1.5234542955
C        0.6227909402    0.0549248215   -0.7841663634
C        0.1299567323    0.5581029943    1.5825842697
N        0.4487764766    1.0798805817    0.2510465536
O       -0.8480336278    2.9068458482    0.6027355792
H        2.5530020701    5.4310273270   -3.7297600392
H        0.4315991787    6.1686573366   -2.6724626296
H        3.5427662826    3.2430129422   -3.1075808431
H       -0.7148831934    4.7285292577   -1.0444229167
H        2.4460221521    1.8076928490   -1.4638829390
H       -0.1987355828   -2.1012202896    0.8129083571
H       -1.9231215216   -1.9855187375    0.4182311712
H       -1.4699178735   -0.2051088930   -1.2234761658
H       -0.4777739662   -1.6196726934   -1.6028003964
H       -1.3588113453   -0.7129522131    2.5103237553
H       -1.9897667280    0.3464761624    1.2412792010
H        0.7844104697    0.4889236419   -1.7737288987
H        1.4950467589   -0.5620672988   -0.5438944365
H       -0.0053511854    1.3723732162    2.3029482551
H        0.9652867328   -0.0497674645    1.9444635071
