28   

C       -0.9864283844    0.3276388293    0.5217272479
C       -2.0409311059   -0.5895542840    0.6208331948
C       -1.7878430289    1.4789601291    2.5031848629
C       -3.9210815156    0.3917739006    3.5397769427
C       -2.8339436400    0.5554028697    2.5899839471
C       -0.8416015507    1.3739979899    1.4579452099
C       -2.9511006165   -0.4560467744    1.6616724431
C       -4.6570454247   -0.7109892841    3.1426344409
C       -5.7902527125   -1.3931287484    3.7610273493
C        1.2176048626    2.2844760890    2.5629089764
C       -0.2032470630    3.7696734043    1.0968232786
C        0.3123458570    2.3470646579    1.3292567765
N       -4.0551435078   -1.2375653330    1.9771138816
O       -6.1773432009   -2.5078616311    3.4361591648
O       -6.3724288022   -0.7090134682    4.7738603647
H       -0.2745505663    0.2218128848   -0.2887714652
H       -2.1447413555   -1.3924870535   -0.0980126687
H       -1.7103712471    2.2651785353    3.2438484879
H       -4.1130636764    0.9999331667    4.4155257316
H        0.6734035334    2.5783888402    3.4654249748
H        2.0726791768    2.9562439865    2.4385680237
H        1.5962982772    1.2663587614    2.6984304218
H       -0.8001170897    4.1145141124    1.9465120668
H       -0.8254262765    3.7997442127    0.1966668060
H        0.6363182560    4.4580732032    0.9587477958
H        0.9162819681    2.0657632977    0.4599792470
H       -4.3670026637   -2.0780291587    1.4945234178
H       -7.0858055304   -1.2860277049    5.0903323682
28   

C       -0.7191851761    0.1396828549    0.7973148510
C       -1.7288302463   -0.8220908966    0.9347631342
C       -1.8743689160    1.5911751953    2.3631905067
C       -4.0728014776    0.5522982142    3.3072384975
C       -2.8724253350    0.6206331813    2.4923687864
C       -0.7737920935    1.3587281261    1.5067765045
C       -2.7943207354   -0.5599127193    1.7866903793
C       -4.6811426212   -0.6639054536    3.0512502774
C       -5.8041141019   -1.3321243718    3.7081728754
C        1.0248097455    2.6519749707    2.6881147566
C       -0.1997041306    3.6673077864    0.7277090078
C        0.3382456201    2.3751299489    1.3471058427
N       -3.8866208287   -1.3556493537    2.1081941485
O       -5.9340257219   -2.5466154377    3.7764410529
O       -6.6703771463   -0.4929079532    4.3225558466
H        0.1148365831   -0.0670311721    0.1365909761
H       -1.6780477362   -1.7580919667    0.3929874184
H       -1.9509691961    2.5107386909    2.9299743794
H       -4.4115959443    1.2917212966    4.0227847931
H        0.3239163610    3.0859016241    3.4074575837
H        1.8561631304    3.3502657248    2.5496925307
H        1.4227521561    1.7211821706    3.1047648451
H       -0.9495217555    4.1301460484    1.3763751421
H       -0.6598159451    3.4537165137   -0.2423236474
H        0.6158688013    4.3805495446    0.5729958547
H        1.0935904859    1.9681344033    0.6664284408
H       -4.0548671701   -2.3101703070    1.7973865731
H       -7.3324979118   -1.0709996129    4.7340857860
28   

C       -0.7446420230    0.1688228093    0.7513460256
C       -1.7605284729   -0.7880650101    0.8772856137
C       -1.8844590411    1.6035328651    2.3435018013
C       -4.0776410552    0.5582784488    3.2905572827
C       -2.8882213618    0.6374890562    2.4614894384
C       -0.7881742993    1.3768519899    1.4801693536
C       -2.8211242749   -0.5322243071    1.7373496001
C       -4.6936213610   -0.6508097569    3.0216005853
C       -5.7700641126   -1.3410629969    3.7408592179
C        1.0184167521    2.6416311042    2.6820902464
C       -0.1936586523    3.6894120352    0.7311633964
C        0.3327206794    2.3859257091    1.3362190205
N       -3.9123100584   -1.3301832702    2.0580665463
O       -5.7641513957   -2.5341678982    4.0049147043
O       -6.7434645513   -0.5210668757    4.2005221059
H        0.0865282613   -0.0339016213    0.0858084383
H       -1.7165950489   -1.7167875899    0.3225672252
H       -1.9516070413    2.5134682910    2.9267736111
H       -4.3950409024    1.2790304763    4.0342861362
H        0.3197545503    3.0733823196    3.4048888713
H        1.8559378697    3.3344482385    2.5536130035
H        1.4076471271    1.7029080096    3.0890808409
H       -0.9420686560    4.1495719080    1.3833676392
H       -0.6524064158    3.4909837628   -0.2427158616
H        0.6276357415    4.3984019359    0.5876070861
H        1.0867094735    1.9810405854    0.6527858760
H       -4.0698346821   -2.2867615332    1.7493147644
H       -7.3531830892   -1.0999997196    4.6852215053
28   

C       -0.7784920449    0.1823166365    0.7134579267
C       -1.8011921403   -0.7682103253    0.8332173361
C       -1.8947871732    1.6027743082    2.3345664585
C       -4.0827710294    0.5567259811    3.2907124850
C       -2.9049535273    0.6427384662    2.4465627881
C       -0.8067692355    1.3799725786    1.4599496353
C       -2.8531883481   -0.5166610947    1.7051773756
C       -4.7088442116   -0.6439031980    3.0121550669
C       -5.7521873969   -1.3441299480    3.7827636174
C        1.0149047491    2.6165066665    2.6703101206
C       -0.1953975809    3.6952324491    0.7353323448
C        0.3223829407    2.3810087611    1.3240851409
N       -3.9450140941   -1.3135293179    2.0273500289
O       -5.6274556102   -2.4655034200    4.2472446862
O       -6.8406059990   -0.5867147043    4.0502816392
H        0.0466409195   -0.0177800840    0.0396633752
H       -1.7677643788   -1.6897688592    0.2659937706
H       -1.9495251719    2.5038944376    2.9326214888
H       -4.3785147102    1.2627188549    4.0570322521
H        0.3226877261    3.0466550483    3.4002176731
H        1.8578899414    3.3034913191    2.5462356732
H        1.3975586224    1.6702870520    3.0660237987
H       -0.9382935808    4.1536803566    1.3950185947
H       -0.6585853505    3.5112912313   -0.2392817971
H        0.6310198977    4.3993349051    0.5972546893
H        1.0708501080    1.9774668785    0.6338237969
H       -4.1026090500   -2.2667171481    1.7098973939
H       -7.4119079362   -1.1491986999    4.5970400908
28   

C       -0.7908455838    0.1986771259    0.6994403364
C       -1.8157857683   -0.7490528974    0.8221767051
C       -1.8781941017    1.6038984829    2.3531347018
C       -4.0580945481    0.5560275521    3.3260618367
C       -2.8907003072    0.6466166058    2.4679714662
C       -0.8037293289    1.3874755602    1.4603354287
C       -2.8543621760   -0.5038174052    1.7119194943
C       -4.6915295561   -0.6365995712    3.0422404410
C       -5.7436563493   -1.3296083416    3.8250237614
C        1.0375603307    2.6073568329    2.6586781646
C       -0.1944524192    3.7071920585    0.7494605216
C        0.3269260424    2.3861503364    1.3194906277
N       -3.9462163867   -1.2990329155    2.0382085012
O       -5.5533278557   -2.3220947437    4.5044438432
O       -6.9415011617   -0.7022656021    3.8115756058
H        0.0238045856    0.0035333642    0.0115772392
H       -1.7941848604   -1.6635923167    0.2431771092
H       -1.9209531423    2.4982055633    2.9622768070
H       -4.3407762675    1.2558967274    4.1027124753
H        0.3563117808    3.0331290977    3.4013486071
H        1.8810641038    3.2928216832    2.5297981730
H        1.4222707753    1.6564342513    3.0408814016
H       -0.9276618561    4.1615031996    1.4227139054
H       -0.6704831931    3.5335482188   -0.2208503873
H        0.6321452683    4.4102842427    0.6073732265
H        1.0652165847    1.9867472122    0.6159868832
H       -4.1178040969   -2.2412868744    1.6978029222
H       -7.5114805128   -1.2319546020    4.3913213348
28   

C       -0.7409139702    0.1692346146    0.8096641350
C       -1.7429433722   -0.7940625333    0.9852927252
C       -1.7922543161    1.5820403962    2.4807079969
C       -3.9463953113    0.5322985146    3.5148979507
C       -2.7843272730    0.6106043200    2.6464403650
C       -0.7479930042    1.3700430361    1.5513270699
C       -2.7529414639   -0.5516279900    1.9078607043
C       -4.5678453863   -0.6674623433    3.2654296198
C       -5.7607136132   -1.2733499419    3.9280683613
C        1.1326189157    2.6252958020    2.6392258878
C       -0.2263201633    3.7030391454    0.8045555824
C        0.3512400612    2.3915453167    1.3430217005
N       -3.8345555341   -1.3468134732    2.2642353319
O       -5.7207123935   -2.0011817551    4.8993623941
O       -6.9343356936   -0.9422538849    3.3438265575
H        0.0486770729   -0.0208067303    0.0917939545
H       -1.7300727958   -1.7143341783    0.4151920294
H       -1.8323444182    2.4887946996    3.0713634445
H       -4.2577468833    1.2717184028    4.2423080942
H        0.4853203634    3.0345608907    3.4205893166
H        1.9528342325    3.3285142744    2.4642131690
H        1.5580454810    1.6817045497    2.9955538731
H       -0.9255041434    4.1466019810    1.5197863615
H       -0.7562332892    3.5203438282   -0.1357280955
H        0.5781378716    4.4200108728    0.6131509668
H        1.0545510156    2.0063918693    0.5970051576
H       -4.0457807552   -2.2676705781    1.8904858743
H       -7.6149759485   -1.3888948117    3.8716886913
28   

C       -0.7091519103    0.0989738933    0.9149682600
C       -1.6958872265   -0.8699960489    1.1400797506
C       -1.7279261288    1.5385131103    2.5831300716
C       -3.8724605688    0.5156319156    3.6605215502
C       -2.7064853428    0.5626570880    2.7957449666
C       -0.7081105821    1.3161721448    1.6295424018
C       -2.6829420934   -0.6164493605    2.0843001991
C       -4.4942707223   -0.6959417128    3.4531348401
C       -5.8127149268   -1.1594621454    3.9537379226
C        1.2090976689    2.5936720067    2.6136291632
C       -0.2484028407    3.6544976864    0.8461501900
C        0.3666994994    2.3490512678    1.3590338803
N       -3.7653049762   -1.3995142948    2.4650184503
O       -6.0629183745   -1.5071615922    5.0908484677
O       -6.7349353472   -1.2824925761    2.9707001013
H        0.0591510552   -0.0972689209    0.1759888065
H       -1.6940472832   -1.7993799055    0.5848185848
H       -1.7656592754    2.4611980537    3.1487725341
H       -4.2172275718    1.3032073891    4.3192821270
H        0.5959945658    2.9960760698    3.4256166193
H        2.0114720887    3.3058363678    2.3971887882
H        1.6620938651    1.6552357580    2.9489129757
H       -0.9117669226    4.0976571639    1.5948995592
H       -0.8256538242    3.4644448738   -0.0643418733
H        0.5397144887    4.3762385909    0.6097673747
H        1.0343214337    1.9680969012    0.5788621825
H       -4.0319310175   -2.2903704326    2.0555598478
H       -7.5319483206   -1.6131245368    3.4147378025
28   

C       -0.7026156022    0.1241030109    0.9331202635
C       -1.6959499902   -0.8326590711    1.1813466101
C       -1.6877725660    1.5932665251    2.5953802588
C       -3.8328451403    0.6090382497    3.7041335985
C       -2.6733369664    0.6298802780    2.8303036328
C       -0.6811952320    1.3495831607    1.6332187260
C       -2.6694540955   -0.5585521315    2.1339273130
C       -4.4701540256   -0.6024412540    3.5213735214
C       -5.7970469325   -1.0163893167    4.0153400257
C        1.2703349433    2.6043370152    2.5743313890
C       -0.2087938922    3.6824408895    0.8357601574
C        0.3995739389    2.3693164719    1.3375232889
N       -3.7574234071   -1.3242892672    2.5344195669
O       -6.1430820753   -1.0740225870    5.1799780831
O       -6.6002738701   -1.4865326472    3.0304723564
H        0.0548121254   -0.0881295838    0.1873731767
H       -1.7100401406   -1.7683020040    0.6368729972
H       -1.7105667400    2.5230717732    3.1500848698
H       -4.1683905689    1.4122792079    4.3488637171
H        0.6783451423    3.0136859001    3.3984684776
H        2.0763453425    3.3071029830    2.3413362864
H        1.7190815788    1.6607105567    2.9006461902
H       -0.8491789152    4.1364132037    1.5978927035
H       -0.8084074452    3.4990865277   -0.0615405712
H        0.5838620993    4.3928465655    0.5809036659
H        1.0457755791    1.9791286789    0.5440043659
H       -4.0564566853   -2.2052820304    2.1250193916
H       -7.4164792530   -1.7542101031    3.4825322014
28   

C       -0.7185454231    0.1453936137    0.9037177290
C       -1.7220315965   -0.8037914808    1.1402950274
C       -1.6883413573    1.6049387269    2.5833880065
C       -3.8410039543    0.6292100642    3.6840221314
C       -2.6838824526    0.6492319119    2.8068708024
C       -0.6843156793    1.3621731659    1.6184129812
C       -2.6927731165   -0.5310152606    2.0960550304
C       -4.4920259588   -0.5742330348    3.4858596909
C       -5.8049862226   -0.9857437453    3.9977311689
C        1.2761916508    2.5902929365    2.5775793317
C       -0.1866725272    3.6965224564    0.8430124161
C        0.4076498366    2.3736510143    1.3357564388
N       -3.7876634618   -1.2907492054    2.4894475587
O       -6.2134288495   -0.8290928908    5.1335999578
O       -6.5195850062   -1.7063988836    3.0979997405
H        0.0369910379   -0.0660167828    0.1558291102
H       -1.7456137208   -1.7329431751    0.5851317163
H       -1.7011323967    2.5279567383    3.1496625856
H       -4.1645056113    1.4240951113    4.3453105564
H        0.6854238176    2.9990385348    3.4028867686
H        2.0898709748    3.2869511042    2.3530271968
H        1.7145351438    1.6397930110    2.8980175268
H       -0.8260063788    4.1495633052    1.6066016031
H       -0.7843844131    3.5263594570   -0.0581454107
H        0.6133935144    4.4018594571    0.5974161907
H        1.0531122238    1.9839606498    0.5413993219
H       -4.0987305966   -2.1664668634    2.0766451768
H       -7.3379528047   -1.9412246311    3.5645978129
28   

C       -0.7403471703    0.1702196405    0.8629764715
C       -1.7560305211   -0.7710005277    1.0783392877
C       -1.7069706828    1.6167242658    2.5558125938
C       -3.8732862278    0.6455670734    3.6338154792
C       -2.7145176970    0.6690217204    2.7584767538
C       -0.6981545187    1.3762717375    1.5952426001
C       -2.7310582539   -0.5010295160    2.0304730076
C       -4.5359977470   -0.5478606947    3.4122954464
C       -5.8264074028   -0.9786581975    3.9521444807
C        1.2661737467    2.5700633010    2.5905798922
C       -0.1656485360    3.7135204034    0.8542514445
C        0.4085119342    2.3782541355    1.3370391062
N       -3.8337533437   -1.2567718920    2.4094740939
O       -6.2991767223   -0.6495571103    5.0249264598
O       -6.4499794015   -1.8964143642    3.1707002610
H        0.0191151246   -0.0394069006    0.1185734941
H       -1.7847941521   -1.6925661007    0.5109062159
H       -1.7130852304    2.5310412045    3.1361606916
H       -4.1854087520    1.4266866634    4.3168199377
H        0.6715111073    2.9760145494    3.4144627365
H        2.0902136202    3.2597709460    2.3829661854
H        1.6901120482    1.6108388342    2.9043418835
H       -0.8083553684    4.1641389313    1.6164524481
H       -0.7552780724    3.5609698347   -0.0553403367
H        0.6448026692    4.4128149453    0.6260720974
H        1.0581477239    1.9907782238    0.5450067265
H       -4.1430935780   -2.1354208596    2.0007977052
H       -7.2667875060   -2.1120072321    3.6494235533
28   

C       -0.7424731522    0.2164527823    0.8118352684
C       -1.7697030551   -0.7160261841    1.0097432695
C       -1.6911121549    1.6429876295    2.5316583881
C       -3.8616785239    0.6727133667    3.6019861071
C       -2.7097395306    0.7037903032    2.7175965623
C       -0.6855640840    1.4081566467    1.5662872755
C       -2.7413331407   -0.4518952014    1.9669410984
C       -4.5400916984   -0.5068694271    3.3555514157
C       -5.7976079818   -0.9650496595    3.9413779777
C        1.2833786161    2.5726325193    2.5907561336
C       -0.1223271983    3.7447714753    0.8522115018
C        0.4346222441    2.4000106647    1.3281670240
N       -3.8492588936   -1.2042851323    2.3372959239
O       -6.3343521811   -0.5044209199    4.9328328499
O       -6.3297459942   -2.0337504383    3.2951030033
H        0.0149191890    0.0109403366    0.0641864496
H       -1.8089721525   -1.6271669467    0.4263263815
H       -1.6851009077    2.5456398897    3.1300028462
H       -4.1531780080    1.4343712182    4.3155377176
H        0.6865200563    2.9792772264    3.4126785544
H        2.1168217451    3.2546289461    2.3955363482
H        1.6939344642    1.6064315373    2.9008718655
H       -0.7685493262    4.1938259784    1.6123991070
H       -0.7044421068    3.6058830666   -0.0643867631
H        0.6966406008    4.4386379382    0.6383697500
H        1.0875564605    2.0126972268    0.5387747739
H       -4.1548114702   -2.0879501665    1.9361786291
H       -7.1404104476   -2.2396243753    3.7884581482
28   

C       -0.7819192066    0.2344677128    0.7772702222
C       -1.8239803302   -0.6845612966    0.9601145135
C       -1.7179913488    1.6568755078    2.5073607344
C       -3.9008748495    0.7017331899    3.5659915564
C       -2.7512417820    0.7309735947    2.6785079337
C       -0.7109337358    1.4170243582    1.5448249046
C       -2.7965063155   -0.4160177800    1.9151794767
C       -4.5963085683   -0.4641253137    3.3025064698
C       -5.8215452716   -0.9477713425    3.9326791651
C        1.2683498883    2.5402066531    2.5962839409
C       -0.1047017927    3.7504415594    0.8577557896
C        0.4270732150    2.3927633494    1.3253659386
N       -3.9126727222   -1.1597563122    2.2783024900
O       -6.4421167964   -0.3834280649    4.8158495214
O       -6.2440795659   -2.1388345868    3.4365057707
H       -0.0231858536    0.0249661682    0.0320933164
H       -1.8728189415   -1.5897165069    0.3681659607
H       -1.7004002025    2.5519054317    3.1168279565
H       -4.1728552759    1.4494343728    4.3017117041
H        0.6716408604    2.9489505809    3.4172684062
H        2.1141393779    3.2104903807    2.4139889349
H        1.6609886431    1.5648013278    2.9007555650
H       -0.7502607514    4.2022146236    1.6169036938
H       -0.6811956650    3.6292563553   -0.0648792587
H        0.7267776581    4.4333424638    0.6573572660
H        1.0802635341    2.0023522355    0.5377149456
H       -4.2107457002   -2.0525584727    1.8918954035
H       -7.0526760094   -2.3389843758    3.9356192909
28   

C       -0.7994838707    0.2664463725    0.7399896691
C       -1.8510695485   -0.6446483202    0.9072025679
C       -1.7286479771    1.6759065606    2.4843474684
C       -3.9174267811    0.7216335631    3.5317246204
C       -2.7712546093    0.7577620957    2.6400649500
C       -0.7199102659    1.4382641340    1.5230005070
C       -2.8246540613   -0.3787893497    1.8619329510
C       -4.6235517380   -0.4336223820    3.2503700097
C       -5.8116275527   -0.9527619262    3.9237487212
C        1.2641654430    2.5281354144    2.6014429598
C       -0.0832860480    3.7718170211    0.8664829825
C        0.4304726952    2.4036071090    1.3229371940
N       -3.9442366124   -1.1209398019    2.2176022357
O       -6.5321557814   -0.3307616817    4.6834922571
O       -6.1005649109   -2.2349943016    3.5841029397
H       -0.0392435790    0.0584243794   -0.0040659844
H       -1.9052744841   -1.5426842245    0.3049666054
H       -1.7035775439    2.5618344453    3.1067110623
H       -4.1728509509    1.4516287756    4.2907476906
H        0.6663117127    2.9349632426    3.4225376499
H        2.1187048813    3.1907441839    2.4323288969
H        1.6437596761    1.5452643414    2.8983792243
H       -0.7297900819    4.2218832005    1.6258466212
H       -0.6540740325    3.6667997885   -0.0616583501
H        0.7568706141    4.4479473441    0.6798242642
H        1.0852762858    2.0146172281    0.5359212576
H       -4.2286999867   -2.0231263186    1.8430871925
H       -6.9065145763   -2.4450005191    4.0834052358
28   

C       -0.8611219258    0.2760523556    0.7108690915
C       -1.9256321080   -0.6223097631    0.8646622128
C       -1.7672078174    1.6694179607    2.4800416628
C       -3.9605413343    0.7219725115    3.5239744369
C       -2.8222685653    0.7634198135    2.6227918916
C       -0.7635460763    1.4334919383    1.5129714875
C       -2.8938729993   -0.3582968256    1.8253537567
C       -4.6860709524   -0.4163111872    3.2232415021
C       -5.8386814728   -0.9680592267    3.9368512601
C        1.2287636326    2.4897071104    2.6133024773
C       -0.0916871337    3.7614797234    0.8779496678
C        0.4016759322    2.3840780334    1.3286008546
N       -4.0195348003   -1.0938791084    2.1753942111
O       -6.6632245739   -0.3301812168    4.5660720401
O       -5.9841510705   -2.3054892209    3.7582640115
H       -0.1045235173    0.0689407751   -0.0371454129
H       -1.9928708279   -1.5101026297    0.2487129310
H       -1.7275870478    2.5435885113    3.1180639875
H       -4.1913969759    1.4317559768    4.3094529732
H        0.6317486210    2.9003504930    3.4330723532
H        2.0934186620    3.1414093231    2.4534091605
H        1.5929739979    1.5000637315    2.9069823292
H       -0.7389520724    4.2135310922    1.6355131434
H       -0.6563377567    3.6698191101   -0.0553513033
H        0.7579923944    4.4286972592    0.7027155446
H        1.0568995988    1.9916708749    0.5436306950
H       -4.2970973180   -2.0004228884    1.8067897923
H       -6.7867231086   -2.5335787912    4.2549380007
28   

C       -0.8958412229    0.3007593817    0.6803751624
C       -1.9754773331   -0.5815862779    0.8209347184
C       -1.7866137722    1.6909613612    2.4596817168
C       -3.9938153491    0.7631082391    3.4915516086
C       -2.8566053652    0.8006008466    2.5892906327
C       -0.7827519667    1.4483318628    1.4945015077
C       -2.9432787402   -0.3113813342    1.7803993674
C       -4.7373286877   -0.3591525146    3.1767644894
C       -5.8680229722   -0.9306431795    3.9184847065
C        1.2198037921    2.4620436394    2.6171845936
C       -0.0673847789    3.7691333222    0.8830855518
C        0.3998155077    2.3802870334    1.3260819795
N       -4.0786572921   -1.0355737971    2.1227413630
O       -6.8039965676   -0.3109462785    4.3891141453
O       -5.8585773672   -2.2868309518    3.9318085080
H       -0.1391172221    0.0882998977   -0.0660140563
H       -2.0537453366   -1.4627449773    0.1968203073
H       -1.7346284377    2.5571299402    3.1076338406
H       -4.2058438705    1.4601552256    4.2934040515
H        0.6244146220    2.8766223638    3.4361455686
H        2.0964709989    3.1001357533    2.4681321402
H        1.5652307717    1.4641776969    2.9057041977
H       -0.7126227471    4.2256557721    1.6397019412
H       -0.6267186942    3.6941681280   -0.0548921442
H        0.7944434833    4.4235402693    0.7192754952
H        1.0538906304    1.9830015576    0.5426066626
H       -4.3522524732   -1.9441858656    1.7572009606
H       -6.6627501484   -2.5341127327    4.4163088843
28   

C       -0.9225853541    0.3168702830    0.6560129639
C       -2.0107794724   -0.5566409408    0.7845972772
C       -1.8016114109    1.6928541994    2.4521386153
C       -4.0162755048    0.7696781885    3.4731167595
C       -2.8801321920    0.8110471591    2.5698215010
C       -0.7992576029    1.4528969670    1.4846454380
C       -2.9766649127   -0.2892386003    1.7467903804
C       -4.7699200906   -0.3396920674    3.1436219910
C       -5.8940696780   -0.9315941741    3.8932503350
C        1.2088831026    2.4380264862    2.6240807348
C       -0.0601148441    3.7716105017    0.8966669637
C        0.3928483363    2.3749200634    1.3293678386
N       -4.1176785903   -1.0084283554    2.0803726051
O       -6.9383429236   -0.3764327842    4.1773857444
O       -5.7256744587   -2.2544839583    4.1336218520
H       -0.1670943624    0.1063517820   -0.0921805414
H       -2.0965554599   -1.4293570475    0.1497060562
H       -1.7415023968    2.5498873861    3.1114074138
H       -4.2164497868    1.4540915737    4.2885750882
H        0.6146713983    2.8515165735    3.4444267049
H        2.0921290169    3.0689241167    2.4834518630
H        1.5437868794    1.4345438186    2.9054444763
H       -0.7046050096    4.2270052908    1.6546042733
H       -0.6161129809    3.7097390326   -0.0442496646
H        0.8081279714    4.4197673850    0.7421792041
H        1.0462986295    1.9783665593    0.5449932591
H       -4.3916483353   -1.9114099452    1.7025598077
H       -6.5352118078   -2.5280258193    4.5940832552
28   

C       -0.9246646507    0.2879976836    0.6435336147
C       -1.9992209540   -0.6038905995    0.7579340839
C       -1.8371788306    1.6343511468    2.4456408752
C       -4.0482813151    0.6699306682    3.4391282235
C       -2.9026419950    0.7347704945    2.5487028481
C       -0.8247603049    1.4184627895    1.4827334371
C       -2.9750474924   -0.3601585716    1.7163036355
C       -4.7772240244   -0.4476294908    3.0966810807
C       -5.9288305161   -1.0575531594    3.8076997447
C        1.1706272432    2.4090860563    2.6359588654
C       -0.1198622931    3.7598935108    0.9378426395
C        0.3529041707    2.3610655964    1.3418897558
N       -4.1080021563   -1.0988084956    2.0332497039
O       -7.0651516508   -0.6275459136    3.8273465415
O       -5.6286878212   -2.2533814510    4.3661793457
H       -0.1615052637    0.0962384800   -0.1019243091
H       -2.0671932336   -1.4720298989    0.1146715623
H       -1.7950310848    2.4869561812    3.1119822677
H       -4.2708945900    1.3503271545    4.2519067035
H        0.5715627116    2.7958686334    3.4657711753
H        2.0440954349    3.0559113417    2.5071719779
H        1.5209834343    1.4049432873    2.8953472227
H       -0.7673379501    4.1924899379    1.7064673187
H       -0.6782295886    3.7090197527   -0.0023282853
H        0.7394040730    4.4221225852    0.7931251604
H        1.0097711608    1.9895103010    0.5481734147
H       -4.3739668828   -1.9902607663    1.6246593649
H       -6.4573198461   -2.5562497180    4.7703531334
28   

C       -0.8217975201    0.2400556174    0.7080034739
C       -1.8624552368   -0.6893291094    0.8349878427
C       -1.7635747994    1.5568310067    2.5171146812
C       -3.9601724292    0.5444208695    3.4978403269
C       -2.7970241720    0.6217177034    2.6307384082
C       -0.7540437743    1.3752455129    1.5439508724
C       -2.8371051815   -0.4778489170    1.8021155046
C       -4.6512399243   -0.5942563146    3.1606607866
C       -5.9479945077   -1.1089150896    3.6923408626
C        1.2361651240    2.4194872188    2.6491029154
C       -0.1534841247    3.7538740211    1.0173711108
C        0.3808892551    2.3654034221    1.3805929616
N       -3.9578261838   -1.2386881147    2.1092301643
O       -7.0409112536   -0.8423953158    3.2349022983
O       -5.8117750748   -1.9273962230    4.7599947251
H       -0.0626389537    0.0766695274   -0.0482310311
H       -1.9100882292   -1.5565448180    0.1886532906
H       -1.7494536312    2.4160541973    3.1760688650
H       -4.2459136277    1.2614172403    4.2574950392
H        0.6479629929    2.7657301366    3.5042607905
H        2.0800049818    3.1018824428    2.5073001186
H        1.6318841751    1.4244335974    2.8762447748
H       -0.7882444534    4.1521744755    1.8145276822
H       -0.7414926292    3.6996494645    0.0956185753
H        0.6772425377    4.4478586647    0.8555769201
H        1.0243825212    2.0326872427    0.5591633885
H       -4.2438573689   -2.0939230194    1.6412110066
H       -6.7168098030   -2.1770578685    5.0049006438
28   

C       -0.7439281896    0.1572960632    0.7589714874
C       -1.7460426484   -0.8104503746    0.9106030821
C       -1.6912262194    1.4398068511    2.5891276715
C       -3.8513081735    0.3746548659    3.5871694686
C       -2.6873668566    0.4681764642    2.7247138115
C       -0.6992266071    1.2956481811    1.5923532626
C       -2.7061692800   -0.6339558074    1.8992537300
C       -4.5177212593   -0.7890634660    3.2618941724
C       -5.8931500848   -1.1982705473    3.6370293352
C        1.2926290373    2.4020260962    2.6248746310
C       -0.2159164878    3.7073366297    1.0779228401
C        0.3858874655    2.3342712431    1.3939600928
N       -3.8084749435   -1.4199621292    2.2124532411
O       -6.8444208643   -1.1888765178    2.8768579809
O       -6.0403199649   -1.4929422794    4.9485481249
H        0.0001952119    0.0239635586   -0.0178131835
H       -1.7804689708   -1.6758899445    0.2610504296
H       -1.6985565815    2.3030941671    3.2428469756
H       -4.1830501488    1.1176653505    4.3018685071
H        0.7278022184    2.7086566599    3.5104326845
H        2.1011782321    3.1209396636    2.4599422685
H        1.7374157820    1.4202223346    2.8158898503
H       -0.8267151562    4.0713648957    1.9093971438
H       -0.8436982507    3.6449556944    0.1833089998
H        0.5803561181    4.4342348094    0.8894030384
H        1.0041567374    2.0401117226    0.5391346223
H       -4.1146559161   -2.2441436015    1.7024150807
H       -6.9828588304   -1.6956274279    5.0585082043
28   

C       -0.7579489649    0.1641690569    0.7396868893
C       -1.7583649127   -0.8059065439    0.8876076553
C       -1.6846086791    1.4183069091    2.5998610809
C       -3.8344114143    0.3388104427    3.6042226102
C       -2.6790903756    0.4445134549    2.7316967431
C       -0.7040805975    1.2897818641    1.5897005468
C       -2.7073002439   -0.6447474039    1.8895242614
C       -4.5059452877   -0.8219427994    3.2684075845
C       -5.8724523689   -1.2385256555    3.6315096434
C        1.2965747369    2.3858079746    2.6170218172
C       -0.2290759522    3.7081811013    1.1016540877
C        0.3779016032    2.3322049050    1.3942883260
N       -3.8073564188   -1.4343733542    2.2013654656
O       -6.7562650720   -1.4747885331    2.8241463212
O       -6.1182786995   -1.2205436697    4.9616016782
H       -0.0227119895    0.0429213765   -0.0474648159
H       -1.8004786098   -1.6612066406    0.2251740211
H       -1.6849381972    2.2717165834    3.2664759567
H       -4.1605185733    1.0714964984    4.3322071511
H        0.7401524344    2.6806545835    3.5118483541
H        2.1025565866    3.1078354763    2.4531281934
H        1.7444301347    1.4023051345    2.7913710971
H       -0.8324668287    4.0604172013    1.9435604629
H       -0.8653629347    3.6561770604    0.2123963359
H        0.5641618003    4.4388159323    0.9148038298
H        0.9882060648    2.0498696076    0.5298086366
H       -4.1307842116   -2.2420489586    1.6748353240
H       -7.0537240388   -1.4634316167    5.0491597422
28   

C       -0.7797406043    0.1994953069    0.7074092001
C       -1.7853642704   -0.7663902519    0.8463575161
C       -1.6867340789    1.4299946997    2.5930840468
C       -3.8314042601    0.3422325033    3.6013901004
C       -2.6862626084    0.4602435430    2.7164773243
C       -0.7133596113    1.3111174512    1.5747631083
C       -2.7266063050   -0.6152321248    1.8569230901
C       -4.5104849702   -0.8114995654    3.2529426883
C       -5.8466392577   -1.2737979431    3.6447136256
C        1.2973661655    2.3808106854    2.6116560920
C       -0.2233628910    3.7313730283    1.1161789930
C        0.3755520062    2.3482491457    1.3904094936
N       -3.8258841770   -1.4060670882    2.1674908556
O       -6.6656075215   -1.7429806067    2.8685574269
O       -6.1574086865   -1.0352997092    4.9399868686
H       -0.0496327040    0.0854148794   -0.0855659713
H       -1.8363599210   -1.6118437390    0.1719865958
H       -1.6763805980    2.2719572014    3.2740314282
H       -4.1416053364    1.0567188257    4.3541472241
H        0.7452190841    2.6687853644    3.5113444282
H        2.1079425551    3.0991960573    2.4545320308
H        1.7388953491    1.3922630287    2.7731787026
H       -0.8231942876    4.0764343593    1.9635932729
H       -0.8615306325    3.6942896465    0.2275229918
H        0.5740166368    4.4594097203    0.9370364216
H        0.9822685102    2.0725604320    0.5212704183
H       -4.1575924200   -2.2098073351    1.6391396626
H       -7.0704219270   -1.3480413442    5.0422263465
28   

C       -0.8191446516    0.2272834738    0.6715748526
C       -1.8334275183   -0.7304117535    0.8032348194
C       -1.7038811499    1.4415354962    2.5784253162
C       -3.8450890314    0.3524985424    3.5947048168
C       -2.7118446177    0.4796956586    2.6951701921
C       -0.7369692142    1.3263361903    1.5534588780
C       -2.7672383802   -0.5837394145    1.8212093633
C       -4.5345213537   -0.7925578969    3.2365307664
C       -5.8312240936   -1.3082785185    3.6743937770
C        1.2859683182    2.3634034949    2.6014527986
C       -0.2198965172    3.7442848858    1.1185290822
C        0.3639789672    2.3524600832    1.3797399304
N       -3.8663956874   -1.3734378163    2.1341166420
O       -6.5694137211   -1.9889497970    2.9756171731
O       -6.2046993925   -0.9014926517    4.9101945662
H       -0.0935759016    0.1157039799   -0.1259080916
H       -1.8951600049   -1.5677060930    0.1196230479
H       -1.6799568047    2.2729165573    3.2719249775
H       -4.1330546012    1.0473610073    4.3743051230
H        0.7373070481    2.6497570856    3.5037752655
H        2.1048201844    3.0737576632    2.4508281682
H        1.7161414119    1.3684646817    2.7542116987
H       -0.8168987631    4.0870790721    1.9688693357
H       -0.8576474076    3.7224123186    0.2290763734
H        0.5853072172    4.4655160732    0.9470890922
H        0.9680721696    2.0781568787    0.5083375475
H       -4.1998223733   -2.1830196882    1.6150575603
H       -7.0835756214   -1.2893407484    5.0484015877
28   

C       -0.8908754300    0.2300996492    0.6208626821
C       -1.9188722574   -0.7134160607    0.7474827592
C       -1.7422722725    1.4321056683    2.5507065727
C       -3.8808115058    0.3506523709    3.5824137867
C       -2.7634879551    0.4838186462    2.6633750911
C       -0.7848740756    1.3155528700    1.5169102595
C       -2.8420932504   -0.5664225187    1.7749200935
C       -4.5873763992   -0.7815025797    3.2157750104
C       -5.8371037687   -1.3473621823    3.7156515751
C        1.2532107145    2.3147245349    2.5758924282
C       -0.2276557862    3.7250719698    1.0953545784
C        0.3339322973    2.3235396772    1.3518058033
N       -3.9432592754   -1.3506557627    2.0936528363
O       -6.4818163694   -2.2064048139    3.1287967693
O       -6.2681320613   -0.8125028150    4.8822356142
H       -0.1720649227    0.1169883502   -0.1825022479
H       -1.9972050675   -1.5420398630    0.0550499412
H       -1.6982885263    2.2519856359    3.2568097591
H       -4.1368766757    1.0229418478    4.3924195558
H        0.7078633098    2.6074809760    3.4781426033
H        2.0842824298    3.0116602925    2.4295160649
H        1.6663323830    1.3122234470    2.7263186534
H       -0.8229341719    4.0720469562    1.9452359562
H       -0.8622524495    3.7169772024    0.2034203287
H        0.5889702075    4.4348959542    0.9305525168
H        0.9361840970    2.0432380485    0.4810373122
H       -4.2759759888   -2.1705996555    1.5901465861
H       -7.1027105223   -1.2687466956    5.0754382920
28   

C       -0.9242982898    0.2957632392    0.5687668751
C       -1.9643006255   -0.6367166613    0.6774074383
C       -1.7570471731    1.4679612985    2.5249650227
C       -3.8931746733    0.3776671001    3.5531632264
C       -2.7894559492    0.5299501449    2.6205539912
C       -0.8026224985    1.3604746861    1.4874097118
C       -2.8834676612   -0.4997279416    1.7098119227
C       -4.6110752842   -0.7411827637    3.1681267914
C       -5.8023309394   -1.3745190379    3.7238753191
C        1.2434414934    2.3144845373    2.5756824542
C       -0.2071454239    3.7656575977    1.1045747021
C        0.3328210362    2.3532170994    1.3453706466
N       -3.9849730497   -1.2852651859    2.0236562263
O       -6.3227331952   -2.3789757096    3.2558742072
O       -6.3065837593   -0.7606171258    4.8201213995
H       -0.2068651601    0.1888044883   -0.2366683864
H       -2.0524084213   -1.4517028524   -0.0298830980
H       -1.6990275356    2.2699956002    3.2502941661
H       -4.1200566810    1.0162631016    4.3983812953
H        0.6968252571    2.6040321002    3.4781784817
H        2.0859930252    3.0005026936    2.4440076789
H        1.6404523620    1.3040191043    2.7159388105
H       -0.8047042303    4.1081942339    1.9546793993
H       -0.8345246022    3.7787629564    0.2076182058
H        0.6204687609    4.4663503255    0.9564574913
H        0.9375649277    2.0760032779    0.4753414262
H       -4.3057215962   -2.1159644422    1.5298939460
H       -7.0822978353   -1.2878550887    5.0697343703
