19   

C        5.6932653987    1.6989416701    0.7936919760
C        4.4444106914    1.8921495263    0.2899750865
C        5.3732873779    0.0755162514   -0.6115990430
C        4.9166906812   -1.4365495204   -2.4760919078
C        4.0966207577   -0.4281029375   -3.2747135153
C        6.6450238209   -2.0267620605   -0.8312556305
N        6.2427200416    0.5561414032    0.2392037426
N        4.2239074370    0.8638449482   -0.6136497800
N        5.6143152192   -1.1089326371   -1.3224836136
O        4.9361914834   -2.5756203117   -2.9329356719
H        6.1783625414    2.3385454607    1.5219393324
H        3.7668271339    2.6906243545    0.5697196770
H        3.9491953640   -0.7739034152   -4.3016453531
H        4.5022139145    0.5838280371   -3.2004022169
H        3.0979266399   -0.3905055875   -2.8342952721
H        6.3421430577   -2.3833774836    0.1583868831
H        7.5566417726   -1.4798250466   -0.5704588999
H        6.8444014866   -2.8759333655   -1.4924898222
H        3.3805866415    0.6740537391   -1.1420248112
19   

C        5.5840408027    1.8672840327    0.8675618328
C        4.3115122872    1.9507068303    0.3921241402
C        5.3624324283    0.1998571563   -0.5022440921
C        4.8780776198   -1.4233730131   -2.2495734966
C        4.0634137227   -0.4795300020   -3.1278769150
C        6.7439501767   -1.8383194563   -0.7033906889
N        6.2123000098    0.7644716483    0.3154473699
N        4.1525505319    0.8919327075   -0.4891675296
N        5.6782826483   -0.9723307117   -1.2065249782
O        4.7801427372   -2.6183592180   -2.5110049425
H        6.0329193863    2.5553757794    1.5746472703
H        3.5785872437    2.6976389085    0.6748641574
H        3.9993383307   -0.8816399347   -4.1426944434
H        4.4105562325    0.5557054623   -3.0838388652
H        3.0248383649   -0.5262438644   -2.7923616256
H        6.3873329718   -2.2956031483    0.2252208687
H        7.6030203662   -1.2596761899   -0.3496433799
H        7.0119125708   -2.6434961361   -1.3950558954
H        3.3158630029    0.6266546439   -0.9958073862
19   

C        5.5880812147    1.8986048500    0.8617028842
C        4.2963850901    1.9089459199    0.4314017061
C        5.4151098978    0.2256854549   -0.5053914305
C        4.8711577468   -1.4411266316   -2.1636188214
C        4.0915497117   -0.5355258522   -3.1102699757
C        6.8454342418   -1.7758600066   -0.7223698401
N        6.2609131197    0.8368082084    0.2818549946
N        4.1676296686    0.8451156610   -0.4488776906
N        5.7751718560   -0.9236080095   -1.2311708678
O        4.6331686674   -2.6415839076   -2.2340100888
H        6.0204364782    2.6094349894    1.5565234221
H        3.5315700761    2.6111547542    0.7428589309
H        4.1288274443   -0.9675083312   -4.1139150375
H        4.4180366617    0.5072997920   -3.0878635408
H        3.0261589198   -0.6392308249   -2.8910658768
H        6.4916803375   -2.2312909900    0.2084736827
H        7.7055649561   -1.1887227261   -0.3855096266
H        7.1026999424   -2.5887558698   -1.4090059084
H        3.3307923460    0.5325155171   -0.9282263107
19   

C        5.5870946233    1.8281997011    0.8927642601
C        4.2798453692    1.8749025093    0.5135674990
C        5.3471178713    0.2494919533   -0.5699617350
C        4.6429329038   -1.3052398148   -2.2444158041
C        3.9662741746   -0.3481724366   -3.2174154809
C        6.6817455630   -1.7900061288   -0.9227541360
N        6.2291036392    0.8023660979    0.2201311004
N        4.1079910144    0.8719323261   -0.4287584211
N        5.6677691131   -0.8520849436   -1.3887237520
O        4.1975095308   -2.4435198834   -2.1805191631
H        6.0512025586    2.4895319233    1.6154104138
H        3.5333648708    2.5595593242    0.8995711870
H        4.0939581565   -0.7582383892   -4.2226153935
H        4.3523007431    0.6732187964   -3.1648774906
H        2.8812258222   -0.4240023286   -3.1120295423
H        6.3179472128   -2.2428771448    0.0056787971
H        7.5904897471   -1.2710398786   -0.6017909427
H        6.8618604373   -2.5997993142   -1.6368867499
H        3.2509391780    0.5944131671   -0.8945061432
19   

C        5.6169222713    1.8366788080    0.8639898728
C        4.2928831213    1.8414198846    0.5436785972
C        5.3603596102    0.2449684055   -0.5795970216
C        4.5605545391   -1.3186584418   -2.1670368232
C        3.9585419174   -0.4345355268   -3.2496352152
C        6.6709270055   -1.7996613956   -0.9348534139
N        6.2604768695    0.8279885997    0.1668938852
N        4.1098386587    0.8297328676   -0.3872356852
N        5.6770593074   -0.8496166292   -1.4150290401
O        3.9705948559   -2.3516530787   -1.8858742668
H        6.0917853333    2.5153270233    1.5631949093
H        3.5431793981    2.5031890010    0.9618772993
H        4.2591042697   -0.8659513447   -4.2078162880
H        4.3367958506    0.5907551734   -3.2213170093
H        2.8706991069   -0.5365667957   -3.2764409024
H        6.3059674718   -2.2250306889    0.0062261198
H        7.5984694366   -1.2949985941   -0.6463379794
H        6.8198002455   -2.6290992656   -1.6332116119
H        3.2418453779    0.5190074763   -0.8108982592
19   

C        5.3806146176    1.5835630360    0.9277321932
C        4.0299482330    1.5967585097    0.7378968770
C        4.9345603535   -0.1842832973   -0.2290727010
C        4.0964539167   -1.4620856498   -2.0321278832
C        4.5362717590   -1.1925473605   -3.4620843660
C        6.3987481650   -1.8955859064   -1.1566067587
N        5.9274093654    0.4622269278    0.3234516330
N        3.7275968537    0.4661065770   -0.0071131781
N        5.0462206217   -1.3963375084   -0.9376130915
O        2.9913703967   -1.9307127146   -1.8440063064
H        5.9416623392    2.3343212088    1.4725490128
H        3.3419711096    2.3435060358    1.1172701444
H        5.1751846212   -2.0192974927   -3.7805004625
H        5.2097515721   -0.3320647247   -3.4953112098
H        3.6830216486   -1.1334505431   -4.1430488701
H        6.9322736499   -1.9997176891   -0.2059809072
H        6.9723869903   -1.1380329734   -1.7015296141
H        6.4051458466   -2.8127559073   -1.7536366813
H        2.8226388065    0.1143703821   -0.3127608726
19   

C        5.4550807310    1.6994719937    1.1008154007
C        4.1059433439    1.7455599399    0.9054459332
C        4.9817401502   -0.0178923634   -0.1203545616
C        4.0961799830   -1.3096867484   -1.9090743072
C        4.4989569871   -1.3979989139   -3.3733484345
C        6.4276799800   -1.7191810539   -1.1087611546
N        5.9839820537    0.5901389818    0.4591450899
N        3.7874493023    0.6477710438    0.1194495273
N        5.0813666212   -1.2066627918   -0.8747583365
O        2.9405227524   -1.5771159500   -1.6213254392
H        6.0275788182    2.4194466716    1.6744876985
H        3.4296507881    2.4917256320    1.3061128467
H        4.9660154995   -2.3716435248   -3.5375290405
H        5.3009258634   -0.6886572040   -3.5934571407
H        3.6306506527   -1.3244258103   -4.0336294818
H        6.9817668050   -1.8046820393   -0.1679940053
H        6.9924108405   -0.9711222166   -1.6755604384
H        6.4256224508   -2.6450283167   -1.6917482743
H        2.8808670538    0.3196009355   -0.2095267326
19   

C        5.4762309348    1.6634651803    1.2578485310
C        4.1333693959    1.7512608882    1.0371230507
C        4.9988616880    0.0445760554   -0.0923241671
C        4.1121311346   -1.2190488885   -1.9218711512
C        4.4692300439   -1.5535801796   -3.3632614276
C        6.4534935387   -1.6113332953   -1.1599662867
N        5.9985182730    0.5913898754    0.5505072001
N        3.8139455148    0.7177614678    0.1691271383
N        5.1095229229   -1.0878165116   -0.9286517277
O        2.9308420519   -1.3103564484   -1.6040316861
H        6.0491732863    2.3293982618    1.8930330983
H        3.4617189820    2.4819455283    1.4724104839
H        4.7755614770   -2.6017169043   -3.3966313067
H        5.3598109388   -1.0066904617   -3.6830724991
H        3.6049969277   -1.4446974846   -4.0240410108
H        6.9995186009   -1.7209866759   -0.2169532589
H        7.0309974334   -0.8496918147   -1.6948589707
H        6.4582387156   -2.5198902614   -1.7690648797
H        2.9123547933    0.4291304365   -0.2090326363
19   

C        5.4768743246    1.5961350603    1.3806634350
C        4.1395299746    1.7182210598    1.1460637058
C        5.0035037291    0.0884007536   -0.0974115213
C        4.1268874998   -1.1481314393   -1.9718924009
C        4.4380618748   -1.6601034533   -3.3721914868
C        6.4770313023   -1.5041329219   -1.2420861683
N        5.9979098107    0.5743650817    0.6015413794
N        3.8242292698    0.7573837377    0.1973352638
N        5.1323807022   -0.9753308119   -1.0157764821
O        2.9373507385   -1.0866521317   -1.6585741076
H        6.0471920902    2.2043898592    2.0734330751
H        3.4689439296    2.4237936322    1.6223269852
H        4.6958003057   -2.7187946213   -3.2912725969
H        5.3493239411   -1.2010541778   -3.7636966222
H        3.5697479835   -1.5769754636   -4.0313964825
H        7.0151476567   -1.6339252591   -0.2970595559
H        7.0637588464   -0.7294231040   -1.7472237141
H        6.4946513891   -2.3967528452   -1.8734858286
H        2.9287804684    0.5101564429   -0.2235090905
19   

C        5.4666505363    1.5451536625    1.4635207273
C        4.1306772674    1.6814491364    1.2317991365
C        5.0025798761    0.1387882149   -0.1175211257
C        4.1332255639   -1.0898058520   -2.0166086406
C        4.3993437832   -1.7502992911   -3.3638351938
C        6.5008498963   -1.3796568903   -1.3313022193
N        5.9923625019    0.5802437731    0.6179744848
N        3.8224193480    0.7865463463    0.2188194055
N        5.1519447675   -0.8567666889   -1.1037988212
O        2.9480130095   -0.8983332830   -1.7273491415
H        6.0332310738    2.1052455607    2.1986708596
H        3.4567994474    2.3540851698    1.7491951711
H        4.6682021721   -2.7934543974   -3.1807609327
H        5.3001688350   -1.3391799651   -3.8262602978
H        3.5156943282   -1.7249215486   -4.0072737702
H        7.0350355663   -1.5263061434   -0.3865096367
H        7.0895596535   -0.5881994475   -1.8071213284
H        6.5368113608   -2.2567848345   -1.9825515403
H        2.9318526435    0.5706075368   -0.2293417323
19   

C        5.4584002691    1.5145291809    1.5655892057
C        4.1221764870    1.6536372496    1.3392257031
C        5.0128609120    0.2138161471   -0.1109250720
C        4.1515105607   -0.9993405249   -2.0336739426
C        4.3819577435   -1.7848741619   -3.3196344746
C        6.5366550409   -1.2206240154   -1.3932778193
N        5.9957281166    0.6161077768    0.6565679809
N        3.8263535363    0.8266964047    0.2667688045
N        5.1822652391   -0.7089122115   -1.1610748494
O        2.9780470428   -0.6921054229   -1.7921698050
H        6.0175900417    2.0279435080    2.3394610347
H        3.4405173411    2.2853820849    1.8963934424
H        4.6898677269   -2.7985722790   -3.0518645090
H        5.2581399060   -1.4016747535   -3.8485396492
H        3.4814238591   -1.8243586590   -3.9385333955
H        7.0710145140   -1.3817621546   -0.4509878307
H        7.1219082344   -0.4132411895   -1.8456862035
H        6.5905706640   -2.0827585681   -2.0622548714
H        2.9414639908    0.6392582060   -0.2051772879
19   

C        5.4752877336    1.2645242820    1.7897962608
C        4.1454594661    1.4152070489    1.5378972453
C        5.0971971470    0.1444168325   -0.0302803070
C        4.2625541102   -0.9875234416   -2.0191965860
C        4.4823817045   -1.8646385238   -3.2477438801
C        6.6528771234   -1.1580497711   -1.4341681653
N        6.0497473346    0.4731602971    0.8073418260
N        3.8927703343    0.7026432879    0.3762290805
N        5.2977519809   -0.6613313039   -1.1682437690
O        3.1025830129   -0.5960474729   -1.8377541648
H        6.0050891663    1.6972433601    2.6307670658
H        3.4402176581    1.9810937542    2.1350186515
H        5.0188791066   -2.7741453245   -2.9676515683
H        5.1995315253   -1.3721609805   -3.9087758040
H        3.5461535860   -2.0731842266   -3.7727008349
H        7.4204591492   -0.7790646349   -0.7523986790
H        6.9268402658   -0.9854152190   -2.4789855043
H        6.6416171752   -2.2516987242   -1.3982717329
H        3.0257612321    0.5633064871   -0.1433783585
19   

C        5.3546261224    1.1771560034    1.8175044014
C        4.0209567927    1.3247742472    1.5816308295
C        4.9862431872    0.1951018818   -0.0800861869
C        4.1543070336   -0.9131748721   -2.0775427053
C        4.3421595356   -1.9011263752   -3.2231840678
C        6.5748954668   -0.9714653959   -1.5421551421
N        5.9389175965    0.4739525588    0.7752392147
N        3.7736900359    0.6981802790    0.3701222171
N        5.2061978404   -0.5191733798   -1.2733950754
O        3.0174366820   -0.4424698669   -1.9521385410
H        5.8803110672    1.5527961864    2.6879727389
H        3.3100917816    1.8349725156    2.2208225355
H        4.9351839249   -2.7579193835   -2.8937715307
H        4.9885570123   -1.4384617882   -3.9729840194
H        3.3885266275   -2.1804245012   -3.6794006278
H        7.3112954997   -0.2234982235   -1.2295823607
H        6.7459097649   -1.3328582915   -2.5589201235
H        6.7920931119   -1.7955475190   -0.8545497345
H        2.9084293634    0.5912314952   -0.1597637700
19   

C        5.3372516692    1.0753583777    1.8018327654
C        4.0036598699    1.2194312193    1.5612450487
C        5.0021074956    0.2158470596   -0.1582102332
C        4.1709624511   -0.8656190422   -2.1609692745
C        4.3414823569   -1.9599993000   -3.2075691364
C        6.6046527251   -0.8585441035   -1.6750495442
N        5.9431278333    0.4520220498    0.7216755369
N        3.7769091609    0.6701231905    0.3087075985
N        5.2372883385   -0.4140378111   -1.3967054875
O        3.0677007869   -0.3118116205   -2.1254978946
H        5.8481803827    1.4000188629    2.7011157095
H        3.2799893731    1.6797885702    2.2235306834
H        4.9639049609   -2.7715160859   -2.8223675481
H        4.9413509426   -1.5538859385   -4.0256125786
H        3.3788330202   -2.2877016085   -3.6093292958
H        7.3391600013   -0.1173788089   -1.3423812957
H        6.7672018008   -1.1882511317   -2.7044390261
H        6.8203028835   -1.7066224929   -1.0165340075
H        2.9196422822    0.5950236669   -0.2390523217
19   

C        5.3150441284    0.9817806417    1.8228356425
C        3.9836064578    1.1273347646    1.5688775100
C        5.0216269830    0.2491359760   -0.1919560992
C        4.1908817053   -0.8063693267   -2.1929669566
C        4.3484035003   -2.0071441041   -3.1165989750
C        6.6375902192   -0.7312715139   -1.7558656363
N        5.9466578961    0.4377272134    0.7148576663
N        3.7825261297    0.6583258659    0.2795837951
N        5.2720326134   -0.2919774950   -1.4709403050
O        3.1267624859   -0.1904223802   -2.2653429500
H        5.8068678954    1.2524576079    2.7502027991
H        3.2449923416    1.5390533365    2.2465815501
H        4.9823779794   -2.7717184918   -2.6606339672
H        4.9199856663   -1.6841416763   -3.9899666407
H        3.3795392571   -2.3724448104   -3.4677194166
H        7.3703338018    0.0046529609   -1.4080243642
H        6.7911690207   -1.0332488224   -2.7955635153
H        6.8517220645   -1.5995210720   -1.1235062384
H        2.9352952053    0.6184909945   -0.2867035810
19   

C        5.2695776056    0.8514113052    1.8372435921
C        3.9460649549    1.0214127672    1.5559552521
C        5.0321349936    0.2690784028   -0.2306364137
C        4.2096191696   -0.7350090991   -2.2420359946
C        4.3492911039   -2.0412998626   -3.0108882810
C        6.6650767388   -0.6170308456   -1.8262520553
N        5.9323010615    0.3870758886    0.7113432664
N        3.7795693498    0.6485276683    0.2305089386
N        5.3026255423   -0.1718376363   -1.5445324477
O        3.1997644851   -0.0703575430   -2.4500358144
H        5.7346982945    1.0518844738    2.7957124017
H        3.1904300875    1.3887862777    2.2404568096
H        4.9534585911   -2.7614560212   -2.4533428216
H        4.9384639777   -1.8388631279   -3.9083553389
H        3.3762536356   -2.4178477057   -3.3376807547
H        7.3986254562    0.1088575275   -1.4596016341
H        6.8161786871   -0.8907203869   -2.8744732319
H        6.8685264491   -1.5050059857   -1.2181147975
H        2.9477639058    0.6615741096   -0.3586470204
19   

C        5.2034715448    0.6960929331    1.7954508532
C        3.8914361988    0.9010386385    1.4839691591
C        5.0275299842    0.2598372261   -0.3124920045
C        4.2258887271   -0.7005713289   -2.3340042161
C        4.3333765345   -2.1166048539   -2.8793750315
C        6.6847506550   -0.5342022462   -1.9204598285
N        5.8983126930    0.3024765695    0.6621531060
N        3.7630291327    0.6219735630    0.1311951772
N        5.3228605458   -0.0853243407   -1.6489074038
O        3.2847938943   -0.0186872719   -2.7070836215
H        5.6387206046    0.8250539402    2.7799025902
H        3.1187104569    1.2318587401    2.1681637110
H        4.8243145549   -2.7700275689   -2.1535737890
H        5.0282685953   -2.1029077651   -3.7219964316
H        3.3687273778   -2.4813882922   -3.2423142938
H        7.4166754020    0.1801988284   -1.5289463167
H        6.8414326226   -0.7746295515   -2.9762606888
H        6.8744063567   -1.4442888449   -1.3411995300
H        2.9485591648    0.6915763606   -0.4767633050
19   

C        5.1706184313    0.5528832197    1.7597243088
C        3.8687327885    0.7940316031    1.4319126148
C        5.0420929564    0.2670736475   -0.3766954571
C        4.2682730954   -0.6372355837   -2.4185950805
C        4.3000840955   -2.1340250300   -2.6820837988
C        6.7241713529   -0.4222351648   -1.9981974149
N        5.8890500799    0.2319516225    0.6185124770
N        3.7695480762    0.6119480281    0.0601063792
N        5.3609683067    0.0182893626   -1.7258755264
O        3.4186085757    0.0309625802   -2.9735878693
H        5.5826562991    0.6079837622    2.7609391136
H        3.0837174368    1.0865035057    2.1197218579
H        4.6722212363   -2.6666372357   -1.8029125540
H        5.0679138844   -2.3274481092   -3.4345262457
H        3.3434326773   -2.4964788021   -3.0676820448
H        7.4501619720    0.2926017762   -1.5967941254
H        6.8799288110   -0.6402860377   -3.0592720568
H        6.9184627887   -1.3420099092   -1.4359253590
H        2.9677072724    0.7384630392   -0.5540020844
19   

C        4.9372625944    2.1303572116   -0.1062235403
C        4.7529115425    1.4230913495    1.0426629128
C        5.1177616214    0.0444428457   -0.6672679184
C        5.7124102520   -0.9309080220   -2.7453680323
C        4.7849061885   -0.2761002904   -3.7589310415
C        5.8039028549   -2.3112590238   -0.6872092558
N        5.1447642995    1.2561627177   -1.1588663501
N        4.8697963257    0.0831817002    0.7014048577
N        5.2667211792   -1.1554139043   -1.3916762686
O        6.8553095542   -1.1594481910   -3.0880408056
H        4.9192590137    3.2113469632   -0.1856823371
H        4.5490191127    1.8461567194    2.0194877404
H        4.5424799169   -1.0273243612   -4.5136487900
H        5.3381036643    0.4614562240   -4.3454163311
H        3.8637351448    0.1006270922   -3.3077209546
H        5.2358395984   -2.5354863287    0.2200751230
H        6.8075430134   -2.0544874742   -0.3300769143
H        5.9172916717   -3.1737663135   -1.3521204587
H        4.7724526711   -0.7280828176    1.3003545304
19   

C        4.8843224511    2.1400461877   -0.0517098079
C        4.7208905697    1.4589221207    1.1152916763
C        5.0646169944    0.0412093625   -0.5683748920
C        5.4870645023   -1.0393651131   -2.6408472350
C        4.5373141992   -0.2744218436   -3.5541826225
C        5.8080311395   -2.3129624484   -0.5409968508
N        5.0795032192    1.2420953629   -1.0865309005
N        4.8412840841    0.1123730776    0.8029524677
N        5.2177708303   -1.1844291132   -1.2487409941
O        6.5081482645   -1.4759734609   -3.1421967057
H        4.8612366470    3.2188489322   -0.1553695293
H        4.5280708452    1.9036423091    2.0847005982
H        4.4243410274   -0.8117777133   -4.4986099466
H        5.0524888498    0.6314860935   -3.8837035676
H        3.5930786760   -0.0201503596   -3.0662359583
H        5.3548954088   -2.4693066174    0.4418198063
H        6.8528274533   -2.0616189077   -0.3269805235
H        5.8343972870   -3.2139457828   -1.1627031857
H        4.7568614754   -0.6854938357    1.4215305157
19   

C        4.8504839404    2.1885655255   -0.0862989980
C        4.6920692363    1.5179486871    1.0869266885
C        5.1004929354    0.0890558059   -0.5739627735
C        5.4538992916   -1.0894995590   -2.6320257115
C        4.5420100212   -0.2483528618   -3.5188672095
C        5.8967364437   -2.2594157918   -0.5023770739
N        5.0874808918    1.2834600511   -1.1060767733
N        4.8597297611    0.1722944108    0.7937338110
N        5.3086192285   -1.1404011529   -1.2294830948
O        6.3332242986   -1.7188285557   -3.2004674808
H        4.7963238482    3.2647624361   -0.2041686514
H        4.4713263758    1.9687887797    2.0474937611
H        4.4059984232   -0.7269317664   -4.4916056664
H        5.0886540182    0.6636595402   -3.7721170281
H        3.6174758282    0.0423793723   -3.0139210125
H        5.5324000898   -2.3390075938    0.5253271570
H        6.9690160528   -2.0564930477   -0.4053182409
H        5.8376613026   -3.1925937310   -1.0722623636
H        4.7921277344   -0.6197303281    1.4217718835
19   

C        4.8597093895    2.0590434575   -0.1108007259
C        4.7268301746    1.4055348572    1.0745536474
C        5.1283740703   -0.0457872463   -0.5702605719
C        5.3302715215   -1.3329061938   -2.6057715207
C        4.4723642212   -0.4167343977   -3.4737077103
C        5.9153530370   -2.4055641258   -0.4669882119
N        5.0931432203    1.1403793678   -1.1191256135
N        4.9090710194    0.0580341286    0.7997788957
N        5.3461698136   -1.2820781450   -1.2054229724
O        6.0058386497   -2.1538158968   -3.2121138834
H        4.7905471312    3.1324884599   -0.2444920230
H        4.5127070121    1.8687839274    2.0306543194
H        4.2723020723   -0.8695280513   -4.4478469980
H        5.0689663408    0.4718192976   -3.6953902515
H        3.5879898174   -0.0560532899   -2.9427994884
H        5.7254487683   -2.3708440831    0.6088974493
H        7.0027900003   -2.3534184780   -0.5898412000
H        5.6675125977   -3.3628075362   -0.9373669015
H        4.8601768182   -0.7246148827    1.4410651529
19   

C        4.8016615827    2.0698869853   -0.0964798276
C        4.7285650685    1.4069017188    1.0881577722
C        5.1710860945   -0.0173801888   -0.5715104615
C        5.2698651203   -1.3650628407   -2.5941668755
C        4.4540767355   -0.4031174418   -3.4541593310
C        6.0243500893   -2.3556079042   -0.4790798422
N        5.0612717580    1.1674912704   -1.1129041346
N        4.9774600673    0.0722661360    0.8036535740
N        5.4409230143   -1.2360574258   -1.2158979676
O        5.7508643486   -2.3138429164   -3.2026253482
H        4.6734767303    3.1386162035   -0.2238169466
H        4.5087723272    1.8552993559    2.0499618106
H        4.2194248268   -0.8340411930   -4.4306064660
H        5.0659613324    0.4851185476   -3.6302560680
H        3.5865547859   -0.0204238910   -2.9112177444
H        5.9665202092   -2.2615913941    0.6083028543
H        7.0847536257   -2.4033035134   -0.7497658901
H        5.6635534014   -3.3157141015   -0.8625749195
H        4.9824382173   -0.7137416503    1.4425002335
19   

C        4.7750930350    2.0764894900   -0.0608221939
C        4.8549720440    1.4145898816    1.1233127578
C        5.3129645443    0.0337188568   -0.5690199481
C        5.3049960859   -1.3859416833   -2.5538607175
C        4.4886370881   -0.4226809780   -3.4123364742
C        6.3139650093   -2.2267904792   -0.4736432434
N        5.0463387949    1.1996285214   -1.0960543360
N        5.2155908306    0.1105073960    0.8172786280
N        5.6548370591   -1.1583545674   -1.2258278946
O        5.6045619103   -2.4281778991   -3.1261852755
H        4.5338604501    3.1270067240   -0.1740358973
H        4.6605048865    1.8439844596    2.0989726416
H        4.2212495137   -0.8597091340   -4.3776835848
H        5.0763464802    0.4852860289   -3.5683272473
H        3.6234375186   -0.0549740557   -2.8557210780
H        5.6699827074   -2.5360209579    0.3547452316
H        7.1686525394   -1.8140953053    0.0723231372
H        6.5944010576   -3.0970965376   -1.0758960973
H        5.3456447553   -0.6679101702    1.4517317278
