34

C     -2.55666   -3.04336   -1.77492
C     -2.56566   -2.96899    0.62160
C     -1.79833   -1.86244   -1.76282
C     -2.94840   -3.60855   -0.56779
C     -1.38224   -1.33235   -0.52526
C     -4.37686    0.23072   -1.89842
C     -4.91198    0.70171   -3.23331
C      0.83104   -0.40098    0.35499
C      0.86361   -0.14095   -1.13353
C     -3.43428    0.48147   -3.04083
C     -0.46251   -0.14969   -0.38491
C     -1.16608    1.17289   -0.11452
C     -1.49770   -1.19290   -3.07477
N     -1.79485   -1.88367    0.63020
N     -2.79132   -0.67659   -3.72397
Br    -3.97421   -5.20818   -0.51969
H     -2.83190   -3.52858   -2.71045
H     -2.88144   -3.36032    1.58640
H     -4.33094    0.92856   -1.06964
H     -4.57247   -0.79629   -1.60667
H     -5.47016   -0.01218   -3.83393
H     -5.24224    1.72926   -3.34196
H      1.03186   -1.41140    0.69549
H      1.18018    0.37784    1.02550
H      1.24302    0.81506   -1.48495
H      1.11722   -0.98607   -1.76903
H     -2.75891    1.32919   -3.01548
H     -0.43631    1.96530    0.07400
H     -1.80822    1.08784    0.76756
H     -1.78618    1.49021   -0.96010
H     -0.84619   -0.32918   -2.96281
H     -1.06216   -1.88125   -3.80504
H     -3.46288   -1.45202   -3.76850
H     -2.59430   -0.41544   -4.69839
