39

C     -1.86216   -1.64926   -1.55159
C     -2.12991   -0.29980   -1.76340
C      3.92751   -0.25130   -3.47505
C     -0.82231   -2.02414   -0.70243
C      4.48018    0.02453   -2.22530
C      2.44682   -1.84982   -2.48189
C     -1.36408    0.69565   -1.13607
C      2.89756   -1.19007   -3.62809
C     -0.01455   -1.05832   -0.08953
C     -0.29314    0.31659   -0.28748
C      4.01540   -0.62941   -1.07767
C      2.98917   -1.57946   -1.21957
C     -1.66983    2.12738   -1.39682
C      1.44919   -0.39919    1.74453
C      1.59402    0.93568    1.03393
C      2.31516   -1.50577   -4.98612
N      1.04003   -1.44527    0.79490
O     -1.02695    3.09839   -1.04430
O      1.59808   -3.63117   -0.39223
O      3.24861   -2.61263    1.25164
O      0.38668    1.29827    0.35144
O      4.50688   -0.33960    0.16562
O     -2.81615    2.27940   -2.13591
S      2.27623   -2.46693    0.17523
H     -2.47255   -2.41129   -2.02658
H     -2.94233    0.00307   -2.41272
H      4.30414    0.28088   -4.34546
H     -0.61407   -3.06866   -0.50638
H      5.27413    0.76391   -2.13276
H      1.66502   -2.59845   -2.55389
H      2.38555   -0.69301    2.21761
H      0.67351   -0.33843    2.51473
H      1.77977    1.74555    1.74272
H      2.41180    0.90435    0.31133
H      2.89312   -2.28986   -5.48938
H      1.28360   -1.85816   -4.90216
H      2.31962   -0.62482   -5.63475
H      5.24437    0.28495    0.07316
H     -2.90947    3.24293   -2.25737
