35

C     -1.20350   -4.10970    2.17432
C     -0.08778   -1.89542    1.16502
C     -0.77263    0.48847    4.29449
C      0.74405   -1.09479    0.29620
C     -1.37298    1.32298    5.29446
C      0.03424   -0.35614    5.01148
C     -1.24666   -1.79983    1.98920
C      0.42262   -3.19044    0.99939
C      0.66617    0.35518   -0.08206
C     -2.34918    2.44403    5.10667
C      0.92482   -1.48972    4.63072
C     -3.15714   -0.68647    2.98969
C     -0.99941    0.50161    2.80727
N     -1.80410   -2.93905    2.44176
N     -0.07000   -4.32310    1.49778
N      1.66499   -1.83646   -0.27483
N     -0.95616    1.00897    6.50276
N     -1.84900   -0.61099    2.33395
O     -0.06110   -0.06330    6.32613
O      1.49062   -3.16725    0.17834
H     -1.69668   -4.99359    2.57435
H      1.14825    0.99590    0.66293
H      1.17870    0.50707   -1.03404
H     -0.37529    0.67228   -0.18073
H     -3.28732    2.08051    4.67507
H     -2.56914    2.91130    6.06847
H     -1.94590    3.20689    4.43256
H      1.32152   -1.34713    3.62301
H      1.75881   -1.57071    5.33210
H      0.37514   -2.43691    4.64168
H     -3.60363    0.31134    2.96072
H     -3.08672   -1.02068    4.03070
H     -3.79776   -1.38112    2.44803
H     -1.46895    1.44374    2.50867
H     -0.04417    0.44562    2.29416
