49

C     -0.48638    5.40556    1.30192
C     -0.79599    3.76376   -0.44131
C     -3.04615   -0.88934    0.24747
C     -2.87406    1.84662   -2.86094
C     -2.86053   -0.68669   -2.28920
C     -2.64759    2.57973   -1.53781
C     -4.64939   -2.02481    1.70399
C     -3.70988   -3.29555   -0.14606
C     -6.04867   -2.25249    1.13379
C     -5.12241   -3.51228   -0.69647
C     -0.23379    1.97283   -1.97264
C     -2.09705   -0.95294   -0.95909
C     -2.11864    0.50490   -2.93903
C     -0.80453    0.57190   -2.13144
C     -0.57524    6.42940    2.39057
C     -7.44667   -3.78476   -0.10906
N      0.62572    4.97420    0.79128
N      0.46881    4.04198   -0.20478
N     -1.22098    2.88385   -1.38691
N     -3.65113   -2.05975    0.63256
N     -6.10268   -3.51173    0.38653
O     -3.26190    0.18135    0.81355
O     -1.12989    0.07447   -0.83047
S     -1.92207    4.65983    0.58509
H     -3.94792    1.68799   -3.00341
H     -2.53941    2.49806   -3.67645
H     -2.83468   -1.57100   -2.93201
H     -3.91121   -0.44770   -2.10579
H     -3.20239    3.52445   -1.55822
H     -3.00424    1.98578   -0.68718
H     -4.58329   -1.05784    2.20026
H     -4.41249   -2.81826    2.42252
H     -3.44698   -4.13531    0.50868
H     -2.99643   -3.27506   -0.96767
H     -6.77123   -2.30180    1.95545
H     -6.32328   -1.38909    0.49731
H     -5.34039   -2.72548   -1.44682
H     -5.16360   -4.47977   -1.20950
H      0.63890    1.94894   -1.31854
H      0.10274    2.33646   -2.95344
H     -1.57574   -1.91707   -0.99812
H     -1.90247    0.28382   -3.98827
H     -0.03610   -0.06639   -2.59523
H     -1.13123    7.31541    2.06493
H     -1.07445    6.02804    3.27916
H      0.43854    6.73087    2.66282
H     -8.14663   -3.82773    0.73123
H     -7.46413   -4.75538   -0.61517
H     -7.80872   -3.01800   -0.81985
