28   

C       -0.9864303742    0.3276407367    0.5217252901
C       -2.0409335398   -0.5895519174    0.6208308110
C       -1.7878434622    1.4789604918    2.5031844270
C       -3.9210815156    0.3917739006    3.5397769427
C       -2.8339444270    0.5554036045    2.5899831778
C       -0.8416025590    1.3739989134    1.4579442009
C       -2.9511024545   -0.4560450027    1.6616706658
C       -4.6570454247   -0.7109892841    3.1426344409
C       -5.7902527125   -1.3931287484    3.7610273493
C        1.2176044595    2.2844754281    2.5629083061
C       -0.2032469891    3.7696741448    1.0968235522
C        0.3123453402    2.3470650583    1.3292562288
N       -4.0551453991   -1.2375635154    1.9771120806
O       -6.1773432009   -2.5078616311    3.4361591648
O       -6.3724319695   -0.7090113385    4.7738570984
H       -0.2745529482    0.2218151765   -0.2887738171
H       -2.1447444830   -1.3924839688   -0.0980157565
H       -1.7103708902    2.2651780832    3.2438488332
H       -4.1130630609    0.9999325745    4.4155262765
H        0.6734033894    2.5783880076    3.4654245179
H        2.0726790855    2.9562429758    2.4385675965
H        1.5962973928    1.2663578449    2.6984291955
H       -0.8001167847    4.1145146252    1.9465125966
H       -0.8254262918    3.7997456934    0.1966671640
H        0.6363186019    4.4580736669    0.9587483537
H        0.9162812347    2.0657638744    0.4599784903
H       -4.3670053235   -2.0780265696    1.4945207768
H       -7.0858095412   -1.2860250077    5.0903282359
28   

C       -0.7191888966    0.1396853726    0.7973095866
C       -1.7288347222   -0.8220877474    0.9347568854
C       -1.8743697819    1.5911756154    2.3631892670
C       -4.0728014776    0.5522982142    3.3072384975
C       -2.8724268075    0.6206341292    2.4923667537
C       -0.7737940482    1.3587293045    1.5067736808
C       -2.7943241338   -0.5599103719    1.7866857361
C       -4.6811426212   -0.6639054536    3.0512502774
C       -5.8041141019   -1.3321243718    3.7081728754
C        1.0248088898    2.6519738264    2.6881132447
C       -0.1997043751    3.6673090847    0.7277083806
C        0.3382445117    2.3751303806    1.3471041087
N       -3.8866243405   -1.3556469412    2.1081894460
O       -5.9340257219   -2.5466154377    3.7764410529
O       -6.6703824916   -0.4929075654    4.3225477487
H        0.1148321226   -0.0670281262    0.1365846136
H       -1.6780534426   -1.7580878584    0.3929793989
H       -1.9509686262    2.5107379890    2.9299751533
H       -4.4115947502    1.2917204626    4.0227862150
H        0.3239159282    3.0859005838    3.4074564189
H        1.8561628676    3.3502639753    2.5496915126
H        1.4227505392    1.7211803922    3.1047626438
H       -0.9495218209    4.1301471605    1.3763748621
H       -0.6598162086    3.4537189490   -0.2423245167
H        0.6158690016    4.3805504898    0.5729959568
H        1.0935891189    1.9681348723    0.6664263993
H       -4.0548720769   -2.3101669058    1.7973796113
H       -7.3325046499   -1.0709990908    4.7340756308
28   

C       -0.7446480083    0.1688266669    0.7513377471
C       -1.7605356956   -0.7880600785    0.8772758749
C       -1.8844604471    1.6035334343    2.3434997194
C       -4.0776410552    0.5582784488    3.2905572827
C       -2.8882237394    0.6374905079    2.4614862379
C       -0.7881774216    1.3768537024    1.4801648241
C       -2.8211297363   -0.5322206547    1.7373424406
C       -4.6936213610   -0.6508097569    3.0216005853
C       -5.7700641126   -1.3410629969    3.7408592179
C        1.0184154335    2.6416291066    2.6820876632
C       -0.1936588785    3.6894138200    0.7311621979
C        0.3327189549    2.3859261360    1.3362161344
N       -3.9123156578   -1.3301795490    2.0580594308
O       -5.7641513957   -2.5341678982    4.0049147043
O       -6.7434717272   -0.5210689577    4.2005105546
H        0.0865210806   -0.0338969914    0.0857984324
H       -1.7166042862   -1.7167811109    0.3225547388
H       -1.9516061770    2.5134670785    2.9267745681
H       -4.3950388790    1.2790291322    4.0342882931
H        0.3197539326    3.0733805383    3.4048868314
H        1.8559374830    3.3344452540    2.5536111396
H        1.4076445822    1.7029050524    3.0890772141
H       -0.9420685885    4.1495734912    1.3833669260
H       -0.6524066345    3.4909873383   -0.2427174276
H        0.6276362589    4.3984030922    0.5876070452
H        1.0867073054    1.9810409712    0.6527825264
H       -4.0698426113   -2.2867562207    1.7493039494
H       -7.3531921035   -1.1000022567    4.6852070868
28   

C       -0.7784994321    0.1823211002    0.7134480624
C       -1.8012012042   -0.7682043533    0.8332056130
C       -1.8947887870    1.6027747037    2.3345640769
C       -4.0827710294    0.5567259811    3.2907124850
C       -2.9049565014    0.6427401509    2.4465589248
C       -0.8067729704    1.3799743033    1.4599443216
C       -2.8531952935   -0.5166566039    1.7051686703
C       -4.7088442116   -0.6439031980    3.0121550669
C       -5.7521873969   -1.3441299480    3.7827636174
C        1.0149034458    2.6165034874    2.6703070758
C       -0.1953975746    3.6952341293    0.7353312397
C        0.3223810268    2.3810087316    1.3240818060
N       -3.9450213789   -1.3135245854    2.0273412422
O       -5.6274556102   -2.4655034200    4.2472446862
O       -6.8406134308   -0.5867205612    4.0502678521
H        0.0466320821   -0.0177747324    0.0396514718
H       -1.7677759917   -1.6897609266    0.2659787223
H       -1.9495238568    2.5038925228    2.9326228576
H       -4.3785120158    1.2627171241    4.0570348767
H        0.3226873815    3.0466521223    3.4002153847
H        1.8578898196    3.3034868506    2.5462334783
H        1.3975557544    1.6702826634    3.0660193626
H       -0.9382930745    4.1536818073    1.3950182223
H       -0.6585854811    3.5112952224   -0.2392832705
H        0.6310208660    4.3993357125    0.5972549193
H        1.0708475499    1.9774667884    0.6338197941
H       -4.1026195708   -2.2667102616    1.7098838045
H       -7.4119172552   -1.1492059449    4.5970228968
28   

C       -0.7908541787    0.1986825722    0.6994291738
C       -1.8157962090   -0.7490457824    0.8221635578
C       -1.8781960487    1.6038991255    2.3531319231
C       -4.0580945481    0.5560275521    3.3260618367
C       -2.8907037307    0.6466186517    2.4679671362
C       -0.8037337446    1.3874778260    1.4603293387
C       -2.8543701011   -0.5038121060    1.7119098148
C       -4.6915295561   -0.6365995712    3.0422404410
C       -5.7436563493   -1.3296083416    3.8250237614
C        1.0375587639    2.6073533616    2.6586745213
C       -0.1944526537    3.7071943949    0.7494594312
C        0.3269236610    2.3861506527    1.3194867246
N       -3.9462246094   -1.2990273990    2.0381988458
O       -5.5533278557   -2.3220947437    4.5044438432
O       -6.9415058175   -0.7022748033    3.8115625746
H        0.0237942709    0.0035398922    0.0115637366
H       -1.7941982479   -1.6635829139    0.2431602442
H       -1.9209517626    2.4982035454    2.9622781654
H       -4.3407731781    1.2558946949    4.1027154254
H        0.3563113673    3.0331257413    3.4013459500
H        1.8810638503    3.2928167880    2.5297955080
H        1.4222674781    1.6564293686    3.0408759832
H       -0.9276614179    4.1615051634    1.4227138058
H       -0.6704837049    3.5335533533   -0.2208518412
H        0.6321461286    4.4102855934    0.6073736423
H        1.0652133800    1.9867475947    0.6159820794
H       -4.1178162163   -2.2412787040    1.6977879289
H       -7.5114863045   -1.2319659035    4.3913052568
28   

C       -0.7409152263    0.1692355072    0.8096625398
C       -1.7429449332   -0.7940614006    0.9852907459
C       -1.7922545635    1.5820405093    2.4807076902
C       -3.9463953113    0.5322985146    3.5148979507
C       -2.7843277651    0.6106046405    2.6464397433
C       -0.7479936229    1.3700434310    1.5513262906
C       -2.7529426478   -0.5516271497    1.9078592212
C       -4.5678453863   -0.6674623433    3.2654296198
C       -5.7607136132   -1.2733499419    3.9280683613
C        1.1326186171    2.6252953226    2.6392256852
C       -0.2263200406    3.7030395836    0.8045555985
C        0.3512397803    2.3915454375    1.3430213690
N       -3.8345567938   -1.3468125635    2.2642337973
O       -5.7207123935   -2.0011817551    4.8993623941
O       -6.9343355686   -0.9422553008    3.3438254957
H        0.0486755781   -0.0208056459    0.0917920459
H       -1.7300748106   -1.7143326831    0.4151894502
H       -1.8323441463    2.4887943929    3.0713638170
H       -4.2577464561    1.2717181062    4.2423085786
H        0.4853201346    3.0345603428    3.4205892088
H        1.9528341212    3.3285136442    2.4642132325
H        1.5580449253    1.6817038509    2.9955533981
H       -0.9255040367    4.1466023385    1.5197864124
H       -0.7562330549    3.5203447137   -0.1357282290
H        0.5781381931    4.4200111852    0.6131513520
H        1.0545506865    2.0063920097    0.5970047720
H       -4.0457827243   -2.2676691694    1.8904835131
H       -7.6149757986   -1.3888965859    3.8716873570
28   

C       -0.7091445136    0.0989672870    0.9149779394
C       -1.6958781579   -0.8700038466    1.1400918125
C       -1.7279246642    1.5385114027    2.5831318572
C       -3.8724605688    0.5156319156    3.6605215502
C       -2.7064825151    0.5626544505    2.7957487214
C       -0.7081069089    1.3161685181    1.6295470252
C       -2.6829353938   -0.6164552198    2.0843092829
C       -4.4942707223   -0.6959417128    3.4531348401
C       -5.8127149268   -1.1594621454    3.9537379226
C        1.2090992984    2.5936733587    2.6136304388
C       -0.2484028988    3.6544935510    0.8461496390
C        0.3667012943    2.3490489236    1.3590358140
N       -3.7652981279   -1.3995203592    2.4650278814
O       -6.0629183745   -1.5071615922    5.0908484677
O       -6.7349402742   -1.2824774567    2.9707029605
H        0.0591599936   -0.0972768843    0.1760004516
H       -1.6940354808   -1.7993898315    0.5848342233
H       -1.7656608840    2.4611987337    3.1487702164
H       -4.2172298086    1.3032092392    4.3192787402
H        0.5959955881    2.9960778106    3.4256172528
H        2.0114724816    3.3058386744    2.3971886287
H        1.6620971151    1.6552384654    2.9489158547
H       -0.9117671529    4.0976539110    1.5948983293
H       -0.8256540174    3.4644381770   -0.0643418019
H        0.5397134752    4.3762349105    0.6097650010
H        1.0343235629    1.9680939982    0.5788646737
H       -4.0319198177   -2.2903799186    2.0555739315
H       -7.5319543022   -1.6131060667    3.4147412356
28   

C       -0.7026084119    0.1240963111    0.9331297419
C       -1.6959413083   -0.8326668091    1.1813582773
C       -1.6877710234    1.5932645454    2.5953821696
C       -3.8328451403    0.6090382497    3.7041335985
C       -2.6733342179    0.6298775348    2.8303073268
C       -0.6811915205    1.3495792592    1.6332234373
C       -2.6694477049   -0.5585579800    2.1339361361
C       -4.4701540256   -0.6024412540    3.5213735214
C       -5.7970469325   -1.0163893167    4.0153400257
C        1.2703368875    2.6043372900    2.5743331751
C       -0.2087934140    3.6824365957    0.8357603926
C        0.3995760041    2.3693136507    1.3375256204
N       -3.7574169392   -1.3242952683    2.5344287091
O       -6.1430820753   -1.0740225870    5.1799780831
O       -6.6002800529   -1.4865175913    3.0304704003
H        0.0548208266   -0.0881376308    0.1873845753
H       -1.7100288871   -1.7683117325    0.6368880200
H       -1.7105680969    2.5230720373    3.1500828982
H       -4.1683926391    1.4122809970    4.3488604052
H        0.6783465551    3.0136865312    3.3984697158
H        2.0763462735    3.3071040272    2.3413368954
H        1.7190848592    1.6607119316    2.9006493236
H       -0.8491785075    4.1364097606    1.5978923653
H       -0.8084071663    3.4990800835   -0.0615397609
H        0.5838617632    4.3928426079    0.5809022953
H        1.0457778961    1.9791253421    0.5440071560
H       -4.0564462425   -2.2052911326    2.1250323771
H       -7.4164869598   -1.7541913796    3.4825296291
28   

C       -0.7185395181    0.1453879425    0.9037254687
C       -1.7220244994   -0.8037980068    1.1403045421
C       -1.6883400533    1.6049370774    2.5833895549
C       -3.8410039543    0.6292100642    3.6840221314
C       -2.6838801921    0.6492296291    2.8068738100
C       -0.6843126135    1.3621698851    1.6184168042
C       -2.6927679094   -0.5310201434    2.0960621815
C       -4.4920259588   -0.5742330348    3.4858596909
C       -5.8049862226   -0.9857437453    3.9977311689
C        1.2761932069    2.5902933517    2.5775807241
C       -0.1866721728    3.6965188603    0.8430123413
C        0.4076515293    2.3736486748    1.3357582590
N       -3.7876582920   -1.2907541393    2.4894548225
O       -6.2134288495   -0.8290928908    5.1335999578
O       -6.5195907616   -1.7063875989    3.0979954405
H        0.0369981770   -0.0660236114    0.1558384225
H       -1.7456045229   -1.7329514059    0.5851440004
H       -1.7011334448    2.5279570128    3.1496609458
H       -4.1645072728    1.4240966015    4.3453079483
H        0.6854248885    2.9990393414    3.4028876265
H        2.0898716767    3.2869521779    2.3530275498
H        1.7145378444    1.6397943816    2.8980201856
H       -0.8260061492    4.1495604445    1.6066009821
H       -0.7843841649    3.5263539966   -0.0581450608
H        0.6133932033    4.4018561621    0.5974148021
H        1.0531141797    1.9839578366    0.5414015894
H       -4.0987228274   -2.1664737676    2.0766547411
H       -7.3379601306   -1.9412103475    3.5645922423
28   

C       -0.7403431465    0.1702158262    0.8629817501
C       -1.7560256298   -0.7710050144    1.0783458110
C       -1.7069698271    1.6167232581    2.5558136517
C       -3.8732862278    0.6455670734    3.6338154792
C       -2.7145161342    0.6690201890    2.7584788325
C       -0.6981524803    1.3762696309    1.5952451917
C       -2.7310546294   -0.5010328851    2.0304779296
C       -4.5359977470   -0.5478606947    3.4122954464
C       -5.8264074028   -0.9786581975    3.9521444807
C        1.2661746595    2.5700641306    2.5905807595
C       -0.1656486461    3.7135181174    0.8542511504
C        0.4085129342    2.3782528202    1.3370402676
N       -3.8337497206   -1.2567753073    2.4094790785
O       -6.2991767223   -0.6495571103    5.0249264598
O       -6.4499838215   -1.8964075105    3.1706958437
H        0.0191199696   -0.0394114814    0.1185798217
H       -1.7847878199   -1.6925718065    0.5109146498
H       -1.7130860130    2.5310415871    3.1361595373
H       -4.1854099375    1.4266877210    4.3168181844
H        0.6715116404    2.9760156149    3.4144632176
H        2.0902138381    3.2597723749    2.3829662897
H        1.6901139267    1.6108404010    2.9043436925
H       -0.8083556616    4.1641371107    1.6164517185
H       -0.7552782073    3.5609660842   -0.0553403652
H        0.6448019888    4.4128130158    0.6260708663
H        1.0581489439    1.9907765855    0.5450082293
H       -4.1430884768   -2.1354253994    2.0008040242
H       -7.2667931970   -2.1119984572    3.6494178280
28   

C       -0.7424711736    0.2164508712    0.8118378237
C       -1.7697005979   -0.7160284882    1.0097464717
C       -1.6911117720    1.6429871606    2.5316588651
C       -3.8616785239    0.6727133667    3.6019861071
C       -2.7097387479    0.7037895251    2.7175975733
C       -0.6855631275    1.4081556378    1.5662884896
C       -2.7413312947   -0.4518969428    1.9669435268
C       -4.5400916984   -0.5068694271    3.3555514157
C       -5.7976079818   -0.9650496595    3.9413779777
C        1.2833790186    2.5726330091    2.5907564330
C       -0.1223274869    3.7447704461    0.8522113339
C        0.4346226233    2.4000101221    1.3281674942
N       -3.8492570230   -1.2042868926    2.3372984119
O       -6.3343521811   -0.5044209199    4.9328328499
O       -6.3297484648   -2.0337474912    3.2951001977
H        0.0149215656    0.0109380510    0.0641895115
H       -1.8089689620   -1.6271698972    0.4263305416
H       -1.6851013771    2.5456401520    3.1300022281
H       -4.1531786143    1.4343717799    4.3155368699
H        0.6865202888    2.9792777499    3.4126787158
H        2.1168217631    3.2546297942    2.3955362655
H        1.6939354053    1.6064323836    2.9008725629
H       -0.7685496562    4.1938251251    1.6123987967
H       -0.7044424997    3.6058813010   -0.0643867525
H        0.6966399780    4.4386371405    0.6383690583
H        1.0875569178    2.0126965951    0.5387753541
H       -4.1548090149   -2.0879524135    1.9361817536
H       -7.1404136382   -2.2396205684    3.7884545127
28   

C       -0.7819191156    0.2344676077    0.7772703230
C       -1.8239802423   -0.6845613968    0.9601146178
C       -1.7179913053    1.6568754603    2.5073607673
C       -3.9008748495    0.7017331899    3.5659915564
C       -2.7512417503    0.7309735634    2.6785079631
C       -0.7109336726    1.4170242845    1.5448249596
C       -2.7965062683   -0.4160178320    1.9151795334
C       -4.5963085683   -0.4641253137    3.3025064698
C       -5.8215452716   -0.9477713425    3.9326791651
C        1.2683499477    2.5402065594    2.5962839652
C       -0.1047017922    3.7504414969    0.8577558416
C        0.4270732549    2.3927632925    1.3253659724
N       -3.9126727029   -1.1597563325    2.2783025158
O       -6.4421167964   -0.3834280649    4.8158495214
O       -6.2440795597   -2.1388345911    3.4365057655
H       -0.0231857372    0.0249660357    0.0320934476
H       -1.8728188248   -1.5897166356    0.3681661050
H       -1.7004001707    2.5519053958    3.1168279758
H       -4.1728552757    1.4494343903    4.3017116864
H        0.6716409086    2.9489503803    3.4172684768
H        2.1141393909    3.2104903551    2.4139889925
H        1.6609887619    1.5648012268    2.9007554960
H       -0.7502607886    4.2022145255    1.6169037337
H       -0.6811956394    3.6292562847   -0.0648792230
H        0.7267776346    4.4333424400    0.6573573515
H        1.0802635607    2.0023522051    0.5377149548
H       -4.2107457046   -2.0525584762    1.8918954064
H       -7.0526760027   -2.3389844030    3.9356192754
28   

C       -0.7994859159    0.2664480843    0.7399870962
C       -1.8510720562   -0.6446461854    0.9071994383
C       -1.7286484624    1.6759068914    2.4843468432
C       -3.9174267811    0.7216335631    3.5317246204
C       -2.7712554568    0.7577627734    2.6400638921
C       -0.7199113318    1.4382649625    1.5229991558
C       -2.8246559899   -0.3787877348    1.8619305754
C       -4.6235517380   -0.4336223820    3.2503700097
C       -5.8116275527   -0.9527619262    3.9237487212
C        1.2641648832    2.5281348286    2.6014423350
C       -0.0832860923    3.7718177900    0.8664829064
C        0.4304721213    2.4036074737    1.3229364689
N       -3.9442385764   -1.1209381623    2.2175998566
O       -6.5321557814   -0.3307616817    4.6834922571
O       -6.1005622533   -2.2349958495    3.5841065854
H       -0.0392460008    0.0584264315   -0.0040690410
H       -1.9052776632   -1.5426814601    0.3049625963
H       -1.7035772187    2.5618340425    3.1067114491
H       -4.1728502623    1.4516281961    4.2907484790
H        0.6663113545    2.9349626473    3.4225371757
H        2.1187046683    3.1907432277    2.4323285661
H        1.6437586105    1.5452634452    2.8983782213
H       -0.7297901098    4.2218837503    1.6258466897
H       -0.6540739813    3.6668012304   -0.0616585612
H        0.7568708068    4.4479479465    0.6798246705
H        1.0852755973    2.0146176964    0.5359203872
H       -4.2287023750   -2.0231242725    1.8430841618
H       -6.9065111546   -2.4450025263    4.0834099185
28   

C       -0.8611262399    0.2760559100    0.7108638777
C       -1.9256373054   -0.6223053609    0.8646559981
C       -1.7672088451    1.6694185954    2.4800404023
C       -3.9605413343    0.7219725115    3.5239744369
C       -2.8222702995    0.7634211679    2.6227898217
C       -0.7635483325    1.4334936369    1.5129687157
C       -2.8938769491   -0.3582935430    1.8253491192
C       -4.6860709524   -0.4163111872    3.2232415021
C       -5.8386814728   -0.9680592267    3.9368512601
C        1.2287623628    2.4897060317    2.6133011420
C       -0.0916871379    3.7614812184    0.8779492901
C        0.4016746999    2.3840787283    1.3285993092
N       -4.0195388082   -1.0938758237    2.1753895665
O       -6.6632245739   -0.3301812168    4.5660720401
O       -5.9841459386   -2.3054907368    3.7582716359
H       -0.1045286932    0.0689450626   -0.0371516998
H       -1.9928774568   -1.5100969166    0.2487049841
H       -1.7275864246    2.5435876041    3.1180647343
H       -4.1913955888    1.4317547803    4.3094544603
H        0.6317476975    2.9003493516    3.4330712997
H        2.0934179972    3.1414075939    2.4534084304
H        1.5929718246    1.5000621029    2.9069802609
H       -0.7389520694    4.2135322584    1.6355129745
H       -0.6563374582    3.6698219358   -0.0553519954
H        0.7579929502    4.4286983046    0.7027161712
H        1.0568981722    1.9916716642    0.5436289414
H       -4.2971022723   -2.0004185981    1.8067834330
H       -6.7867164984   -2.5335807998    4.2549477755
28   

C       -0.8958473283    0.3007643064    0.6803677915
C       -1.9754847388   -0.5815800377    0.8209259400
C       -1.7866152327    1.6909621807    2.4596798443
C       -3.9938153491    0.7631082391    3.4915516086
C       -2.8566078530    0.8006027516    2.5892876816
C       -0.7827551840    1.4483341336    1.4944974780
C       -2.9432844021   -0.3113766247    1.7803927920
C       -4.7373286877   -0.3591525146    3.1767644894
C       -5.8680229722   -0.9306431795    3.9184847065
C        1.2198022130    2.4620416781    2.6171821130
C       -0.0673849399    3.7691352674    0.8830849321
C        0.3998136754    2.3802878274    1.3260794391
N       -4.0786631358   -1.0355690146    2.1227347096
O       -6.8039965676   -0.3109462785    4.3891141453
O       -5.8585705771   -2.2868306823    3.9318199922
H       -0.1391244921    0.0883057802   -0.0660228839
H       -2.0537547470   -1.4627368374    0.1968091210
H       -1.7346275377    2.5571285484    3.1076347394
H       -4.2058418677    1.4601534752    4.2934060995
H        0.6244137804    2.8766202306    3.4361437077
H        2.0964702860    3.1001327687    2.4681303740
H        1.5652278633    1.4641748991    2.9057004195
H       -0.7126225006    4.2256573230    1.6397019095
H       -0.6267188582    3.6941720174   -0.0548929199
H        0.7944440689    4.4235414737    0.7192758737
H        1.0538882787    1.9830025638    0.5426035823
H       -4.3522600772   -1.9441792267    1.7571910722
H       -6.6627414920   -2.5341125257    4.4163234119
28   

C       -0.9225931102    0.3168767232    0.6560036322
C       -2.0107888686   -0.5566327768    0.7845861824
C       -1.8016132361    1.6928551746    2.4521363241
C       -4.0162755048    0.7696781885    3.4731167595
C       -2.8801353122    0.8110495800    2.5698178207
C       -0.7992616664    1.4528999001    1.4846403887
C       -2.9766720862   -0.2892325112    1.7467821226
C       -4.7699200906   -0.3396920674    3.1436219910
C       -5.8940696780   -0.9315941741    3.8932503350
C        1.2088810163    2.4380242652    2.6240776430
C       -0.0601151277    3.7716129121    0.8966661952
C        0.3928460030    2.3749211051    1.3293646811
N       -4.1176860428   -1.0084221214    2.0803641882
O       -6.9383429236   -0.3764327842    4.1773857444
O       -5.7256676036   -2.2544803146    4.1336363348
H       -0.1671036364    0.1063595381   -0.0921917749
H       -2.0965674277   -1.4293463546    0.1496918379
H       -1.7415012677    2.5498854244    3.1114086693
H       -4.2164471777    1.4540892328    4.2885776890
H        0.6146702181    2.8515142966    3.4444242899
H        2.0921280018    3.0689205806    2.4834495594
H        1.5437831200    1.4345406456    2.9054399740
H       -0.7046048125    4.2270071707    1.6546042421
H       -0.6161132437    3.7097438462   -0.0442506038
H        0.8081286007    4.4197688708    0.7421796989
H        1.0462957016    1.9783678485    0.5449894827
H       -4.3916587076   -1.9114007282    1.7025464667
H       -6.5352031514   -2.5280213950    4.5941013317
28   

C       -0.9246724171    0.2880043817    0.6435241680
C       -1.9992304365   -0.6038821258    0.7579227420
C       -1.8371805484    1.6343522096    2.4456386689
C       -4.0482813151    0.6699306682    3.4391282235
C       -2.9026450770    0.7347730293    2.5486991530
C       -0.8247642700    1.4184658557    1.4827284550
C       -2.9750546850   -0.3601522548    1.7162951996
C       -4.7772240244   -0.4476294908    3.0966810807
C       -5.9288305161   -1.0575531594    3.8076997447
C        1.1706253386    2.4090836065    2.6359560566
C       -0.1198621659    3.7598960260    0.9378423166
C        0.3529020728    2.3610666682    1.3418868764
N       -4.1080096554   -1.0988019814    2.0332410447
O       -7.0651516508   -0.6275459136    3.8273465415
O       -5.6286840595   -2.2533739510    4.3661931576
H       -0.1615145693    0.0962465423   -0.1019356803
H       -2.0672054004   -1.4720188011    0.1146569613
H       -1.7950297441    2.4869542463    3.1119837088
H       -4.2708919863    1.3503247586    4.2519094187
H        0.5715616567    2.7958659547    3.4657690812
H        2.0440946330    3.0559076021    2.5071701285
H        1.5209798579    1.4049398357    2.8953427815
H       -0.7673374496    4.1924918324    1.7064676616
H       -0.6782292851    3.7090248765   -0.0023288494
H        0.7394051977    4.4221241306    0.7931263558
H        1.0097685009    1.9895116827    0.5481699293
H       -4.3739779178   -1.9902507500    1.6246454094
H       -6.4573151799   -2.5562405720    4.7703699967
28   

C       -0.8217962476    0.2400543196    0.7080050675
C       -1.8624537110   -0.6893306477    0.8349897644
C       -1.7635745179    1.5568306939    2.5171150387
C       -3.9601724292    0.5444208695    3.4978403269
C       -2.7970236862    0.6217171999    2.6307390260
C       -0.7540431093    1.3752448146    1.5439517079
C       -2.8371040499   -0.4778500642    1.8021169427
C       -4.6512399243   -0.5942563146    3.1606607866
C       -5.9479945077   -1.1089150896    3.6923408626
C        1.2361653410    2.4194874104    2.6491035381
C       -0.1534839463    3.7538733436    1.0173710959
C        0.3808896645    2.3654029656    1.3805934912
N       -3.9578250340   -1.2386892804    2.1092316415
O       -7.0409112536   -0.8423953158    3.2349022983
O       -5.8117749708   -1.9273975216    4.7599937197
H       -0.0626374211    0.0766679457   -0.0482291156
H       -1.9100862630   -1.5565467844    0.1886557555
H       -1.7494538388    2.4160543735    3.1760685944
H       -4.2459139885    1.2614176301    4.2574945355
H        0.6479630183    2.7657305749    3.5042611824
H        2.0800051072    3.1018827125    2.5073005876
H        1.6318845096    1.4244339432    2.8762458651
H       -0.7882443489    4.1521740152    1.8145275022
H       -0.7414924192    3.6996483516    0.0956185657
H        0.6772426170    4.4478580532    0.8555766675
H        1.0243830924    2.0326866237    0.5591641107
H       -4.2438556288   -2.0939247919    1.6412132368
H       -6.7168096781   -2.1770594363    5.0048994417
28   

C       -0.7439207105    0.1572876006    0.7589806585
C       -1.7460335874   -0.8104601986    0.9106144951
C       -1.6912247168    1.4398044801    2.5891294110
C       -3.8513081735    0.3746548659    3.5871694686
C       -2.6873640296    0.4681730407    2.7247174010
C       -0.6992228137    1.2956433552    1.5923576964
C       -2.7061626476   -0.6339632093    1.8992623867
C       -4.5177212593   -0.7890634660    3.2618941724
C       -5.8931500848   -1.1982705473    3.6370293352
C        1.2926309129    2.4020263968    2.6248764426
C       -0.2159162167    3.7073318786    1.0779220391
C        0.3858894858    2.3342678285    1.3939620419
N       -3.8084682939   -1.4199696080    2.2124623083
O       -6.8444208643   -1.1888765178    2.8768579809
O       -6.0403168719   -1.4929583105    4.9485448582
H        0.0002042820    0.0239533657   -0.0178021898
H       -1.7804572136   -1.6759023626    0.2610651597
H       -1.6985582064    2.3030947079    3.2428448321
H       -4.1830521256    1.1176677460    4.3018650928
H        0.7278034920    2.7086576407    3.5104338824
H        2.1011789760    3.1209409425    2.4599428111
H        1.7374191820    1.4202236820    2.8158934862
H       -0.8267150329    4.0713613207    1.9093957123
H       -0.8436981334    3.6449483718    0.1833084899
H        0.5803554940    4.4342305941    0.8894005046
H        1.0041590857    2.0401074672    0.5391371010
H       -4.1146455551   -2.2441550824    1.7024284221
H       -6.9828550040   -1.6956472125    5.0585042536
28   

C       -0.7579419668    0.1641609040    0.7396951450
C       -1.7583564372   -0.8059159607    0.8876180228
C       -1.6846071889    1.4183045640    2.5998626347
C       -3.8344114143    0.3388104427    3.6042226102
C       -2.6790877117    0.4445101762    2.7316999941
C       -0.7040770152    1.2897771627    1.5897044737
C       -2.7072940481   -0.6447544524    1.8895321157
C       -4.5059452877   -0.8219427994    3.2684075845
C       -5.8724523689   -1.2385256555    3.6315096434
C        1.2965765772    2.3858081511    2.6170231589
C       -0.2290758479    3.7081764795    1.1016530269
C        0.3779034771    2.3322015550    1.3942898374
N       -3.8073502378   -1.4343804413    2.2013736553
O       -6.7562650720   -1.4747885331    2.8241463212
O       -6.1182744309   -1.2205597610    4.9616026590
H       -0.0227035410    0.0429115691   -0.0474549516
H       -1.8004676122   -1.6612185593    0.2251874589
H       -1.6849395460    2.2717169747    3.2664740025
H       -4.1605203937    1.0714987313    4.3322040779
H        0.7401537896    2.6806554515    3.5118491732
H        2.1025573553    3.1078365559    2.4531282620
H        1.7444334106    1.4023062699    2.7913741486
H       -0.8324667905    4.0604136881    1.9435588827
H       -0.8653630850    3.6561699278    0.2123956072
H        0.5641609724    4.4388118782    0.9148010105
H        0.9882081806    2.0498654658    0.5298105760
H       -4.1307745836   -2.2420597517    1.6748471148
H       -7.0537187145   -1.4634516260    5.0491610431
28   

C       -0.7797352976    0.1994892434    0.7074152565
C       -1.7853578608   -0.7663972829    0.8463650713
C       -1.6867329074    1.4299930021    2.5930852353
C       -3.8314042601    0.3422325033    3.6013901004
C       -2.6862605660    0.4602411197    2.7164797214
C       -0.7133568265    1.3111139598    1.5747660746
C       -2.7266015663   -0.6152374139    1.8569288461
C       -4.5104849702   -0.8114995654    3.2529426883
C       -5.8466392577   -1.2737979431    3.6447136256
C        1.2973676064    2.3808106151    2.6116575588
C       -0.2233622889    3.7313696257    1.1161783612
C        0.3755536743    2.3482465685    1.3904108808
N       -3.8258793954   -1.4060724545    2.1674968582
O       -6.6656075215   -1.7429806067    2.8685574269
O       -6.1574039957   -1.0353122310    4.9399902766
H       -0.0496263094    0.0854075807   -0.0855587335
H       -1.8363516263   -1.6118526375    0.1719963524
H       -1.6763815540    2.2719575916    3.2740300680
H       -4.1416067630    1.0567204801    4.3541450571
H        0.7452200172    2.6687858160    3.5113454206
H        2.1079432777    3.0991966303    2.4545327405
H        1.7388977804    1.3922636180    2.7731814946
H       -0.8231938637    4.0764318468    1.9635921445
H       -0.8615300365    3.6942845121    0.2275224406
H        0.5740167039    4.4594066385    0.9370346942
H        0.9822704845    2.0725571847    0.5212722320
H       -4.1575851758   -2.2098152837    1.6391480601
H       -7.0704160404   -1.3480570239    5.0422307053
28   

C       -0.8191410296    0.2272796407    0.6715788732
C       -1.8334230466   -0.7304163743    0.8032398380
C       -1.7038804319    1.4415345446    2.5784261217
C       -3.8450890314    0.3524985424    3.5947048168
C       -2.7118432191    0.4796941006    2.6951717874
C       -0.7369674173    1.3263341452    1.5534608431
C       -2.7672350595   -0.5837429279    1.8212131781
C       -4.5345213537   -0.7925578969    3.2365307664
C       -5.8312240936   -1.3082785185    3.6743937770
C        1.2859691820    2.3634040256    2.6014536286
C       -0.2198966230    3.7442830602    1.1185287187
C        0.3639798323    2.3524588685    1.3797407967
N       -3.8663923057   -1.3734414292    2.1341206106
O       -6.5694137211   -1.9889497970    2.9756171731
O       -6.2046952419   -0.9015006324    4.9101984349
H       -0.0935715447    0.1156993983   -0.1259032972
H       -1.8951541813   -1.5677120003    0.1196295249
H       -1.6799576042    2.2729170420    3.2719241091
H       -4.1330556338    1.0473621213    4.3743037438
H        0.7373076310    2.6497578144    3.5037758654
H        2.1048204428    3.0737587758    2.4508284561
H        1.7161431160    1.3684656920    2.7542132834
H       -0.8168989774    4.0870777033    1.9688687101
H       -0.8576475839    3.7224092562    0.2290760916
H        0.5853066216    4.4655146200    0.9470879719
H        0.9680731871    2.0781553594    0.5083386158
H       -4.1998173067   -2.1830250121    1.6150631300
H       -7.0835703812   -1.2893508113    5.0484065295
28   

C       -0.8908735622    0.2300977340    0.6208646613
C       -1.9188699654   -0.7134183834    0.7474852168
C       -1.7422718576    1.4321052199    2.5507069909
C       -3.8808115058    0.3506523709    3.5824137867
C       -2.7634872158    0.4838178884    2.6633758834
C       -0.7848731220    1.3155518718    1.5169112398
C       -2.8420915363   -0.5664242602    1.7749219504
C       -4.5873763992   -0.7815025797    3.2157750104
C       -5.8371037687   -1.3473621823    3.7156515751
C        1.2532112546    2.3147248209    2.5758928207
C       -0.2276557952    3.7250711342    1.0953544944
C        0.3339327835    2.3235391219    1.3518062404
N       -3.9432575467   -1.3506575284    2.0936547272
O       -6.4818163694   -2.2064048139    3.1287967693
O       -6.2681295204   -0.8125063387    4.8822381684
H       -0.1720626919    0.1169860570   -0.1824998890
H       -1.9972021141   -1.5420428491    0.0550531171
H       -1.6982888570    2.2519859242    3.2568093684
H       -4.1368772331    1.0229423855    4.3924189320
H        0.7078637264    2.6074813095    3.4781429063
H        2.0842826426    3.0116609131    2.4295161964
H        1.6663333904    1.3122239760    2.7263193782
H       -0.8229341583    4.0720463144    1.9452358079
H       -0.8622525695    3.7169758021    0.2034203296
H        0.5889699533    4.4348953092    0.9305520267
H        0.9361846284    2.0432373827    0.4810378154
H       -4.2759735040   -2.1706021665    1.5901491931
H       -7.1027073042   -1.2687511456    5.0754415724
28   

C       -0.9242982823    0.2957633717    0.5687669058
C       -1.9643006120   -0.6367165439    0.6774074332
C       -1.7570471902    1.4679613644    2.5249650702
C       -3.8931746733    0.3776671001    3.5531632264
C       -2.7894559544    0.5299501859    2.6205540042
C       -0.8026225047    1.3604747986    1.4874097663
C       -2.8834676595   -0.4997278781    1.7098119133
C       -4.6110752842   -0.7411827637    3.1681267914
C       -5.8023309394   -1.3745190379    3.7238753191
C        1.2434414692    2.3144846713    2.5756825500
C       -0.2071454218    3.7656577194    1.1045747673
C        0.3328210315    2.3532172227    1.3453707288
N       -3.9849730497   -1.2852651407    2.0236562038
O       -6.3227331952   -2.3789757096    3.2558742072
O       -6.3065837454   -0.7606171382    4.8201214133
H       -0.2068651440    0.1888046442   -0.2366683491
H       -2.0524083901   -1.4517027093   -0.0298831332
H       -1.6990275671    2.2699956484    3.2502942349
H       -4.1200566734    1.0162630848    4.3983813101
H        0.6968252226    2.6040322625    3.4781785618
H        2.0859930159    3.0005028103    2.4440077748
H        1.6404523172    1.3040192334    2.7159389273
H       -0.8047042382    4.1081943605    1.9546794558
H       -0.8345245853    3.7787630669    0.2076182607
H        0.6204687662    4.4663504456    0.9564575603
H        0.9375649445    2.0760034019    0.4753415231
H       -4.3057216258   -2.1159643579    1.5298938768
H       -7.0822978194   -1.2878551013    5.0697343877
