18   

C        4.6331489616    1.3459722419    0.7538183238
C        5.8139907360    1.1162716769    0.0578439330
C        3.5008874128    0.5758692131    0.4819786556
C        5.8525191786    0.1176163931   -0.9129831810
C        3.5148812075   -0.4449182471   -0.4880718959
C        4.7243040738   -0.6614946761   -1.1988640896
C        2.2836726517   -1.2595635898   -0.7409971179
C        0.9255131937   -0.7892421653   -0.2311504418
O        2.3102354744   -2.3131859061   -1.3628699842
O        4.8394502260   -1.6001087296   -2.1827804539
H        4.5933088058    2.1217185901    1.5103739550
H        6.6964254128    1.7112887354    0.2677202740
H        2.6063407909    0.7855760767    1.0569106754
H        6.7762154419   -0.0470308472   -1.4536463055
H        0.7670969450    0.2586429821   -0.4992969238
H        0.8758648279   -0.9036682580    0.8547636355
H        0.1296915397   -1.3874178050   -0.6844090044
H        5.7506973676   -1.6457514301   -2.5119243706
18   

C        4.6560720237    1.3455003009    0.7980864523
C        5.8087066543    1.1619622629    0.0407734285
C        3.5350944513    0.5453601376    0.5677991315
C        5.8294911168    0.1814569290   -0.9507644447
C        3.5390812337   -0.4554416673   -0.4197620245
C        4.7108291623   -0.6248424561   -1.1941939828
C        2.3294741382   -1.3189268933   -0.6179731070
C        0.9406437163   -0.7750284598   -0.3057243306
O        2.4123600260   -2.4711546229   -1.0185709282
O        4.7846255231   -1.5399450166   -2.2039744653
H        4.6309738585    2.1060786869    1.5704842706
H        6.6827894598    1.7791407531    0.2191878852
H        2.6587921233    0.7057303373    1.1858788071
H        6.7286194062    0.0543171151   -1.5406950736
H        0.8585712477    0.2596014549   -0.6492619152
H        0.7583989195   -0.8184454107    0.7710674897
H        0.1829331823   -1.3739964854   -0.8189730525
H        5.6888866152   -1.5978301376   -2.5507692922
18   

C        4.7236058424    1.2900806993    0.8579609066
C        5.8289614476    1.1404001311    0.0240818857
C        3.5968832321    0.4855203685    0.6732469358
C        5.7968165102    0.1891055345   -0.9967348002
C        3.5526894013   -0.4797736068   -0.3443829146
C        4.6707240229   -0.6193332041   -1.1921515710
C        2.3474367075   -1.3659700565   -0.4960315700
C        0.9502040585   -0.7750502939   -0.3656897818
O        2.4567350047   -2.5681761037   -0.6810882383
O        4.6741181882   -1.5111447439   -2.2252947988
H        4.7408016040    2.0260547066    1.6540197209
H        6.7074982639    1.7604686277    0.1669972121
H        2.7546132444    0.6093641727    1.3450198001
H        6.6581161685    0.0867103701   -1.6450195752
H        0.8937600398    0.1644803627   -0.9218804751
H        0.7197857902   -0.5888424752    0.6860964734
H        0.2119788298   -1.4706903361   -0.7747293547
H        5.5609874493   -1.5831979460   -2.6129039575
18   

C        4.7769615949    1.2316690492    0.9525417817
C        5.8308165937    1.1371717569    0.0451624783
C        3.6523811039    0.4162228940    0.8024124374
C        5.7505626875    0.2283879786   -1.0123180648
C        3.5638512259   -0.4991184923   -0.2538192506
C        4.6258028197   -0.5893715310   -1.1706775984
C        2.3643005783   -1.4049516050   -0.3769963154
C        0.9631906707   -0.8087623151   -0.4041813420
O        2.4840695210   -2.6188476484   -0.3551165292
O        4.5692324379   -1.4487951430   -2.2294477656
H        4.8335868330    1.9317161130    1.7785917959
H        6.7073851316    1.7655606154    0.1612312159
H        2.8511565532    0.4895706308    1.5296132416
H        6.5719453448    0.1659714692   -1.7151803041
H        0.7939808713   -0.3288133188   -1.3717160884
H        0.8460016796   -0.0657393200    0.3877125151
H        0.2178471481   -1.5966132491   -0.2633213378
H        5.4326237519   -1.5044312173   -2.6700834471
18   

C        4.8386257128    1.1837746143    1.0318077144
C        5.8391248094    1.1234479994    0.0622275712
C        3.7104653072    0.3667376636    0.9204153735
C        5.7020285434    0.2466483355   -1.0169377892
C        3.5680907327   -0.5143591444   -0.1557819405
C        4.5729332379   -0.5718901787   -1.1338144276
C        2.3581691156   -1.4159331338   -0.2556184048
C        0.9906649286   -0.8060595996   -0.5242998065
O        2.4380934431   -2.6069932263   -0.0090216900
O        4.4535330709   -1.4055747854   -2.2079335885
H        4.9388035227    1.8590087207    1.8741959262
H        6.7180228402    1.7535686735    0.1470482431
H        2.9441390802    0.4108631870    1.6870672350
H        6.4818006896    0.2098620072   -1.7673926529
H        0.9020946671   -0.5743587149   -1.5889998552
H        0.8687356854    0.1144998937    0.0517290294
H        0.2026521699   -1.5106233102   -0.2442695057
H        5.2844427909   -1.4338336697   -2.7101019537
18   

C        4.9142367350    1.1369593103    1.1193396046
C        5.8512057691    1.1056343707    0.0868139408
C        3.7790521339    0.3245279131    1.0545416343
C        5.6429454287    0.2631489754   -1.0082885206
C        3.5701342767   -0.5278990587   -0.0328433599
C        4.5065762665   -0.5506182458   -1.0771576661
C        2.3326806703   -1.3957109205   -0.1114142168
C        1.0784387163   -0.8460174202   -0.7723224257
O        2.3184521221   -2.5209620057    0.3569035494
O        4.3134659525   -1.3497972316   -2.1669313520
H        5.0674404714    1.7880054180    1.9727147827
H        6.7346539307    1.7333022367    0.1344140179
H        3.0568450018    0.3492430021    1.8638800153
H        6.3722999467    0.2506649013   -1.8085871109
H        1.2780013069   -0.6567840644   -1.8303911198
H        0.7866772009    0.0903319260   -0.2900621130
H        0.2598391100   -1.5659194099   -0.6856066790
H        5.1000016394   -1.3407319129   -2.7372607418
18   

C        4.9701237457    1.0775133547    1.1664757753
C        5.8557073334    1.0796481557    0.0891757720
C        3.8243295764    0.2788919426    1.1243309099
C        5.5867962393    0.2831552023   -1.0270884152
C        3.5543983572   -0.5279086104    0.0145702431
C        4.4399971479   -0.5176555956   -1.0743652434
C        2.2910481144   -1.3567723676   -0.0306313630
C        1.1372968830   -0.9255122777   -0.9244363891
O        2.1822206524   -2.3746476185    0.6332516641
O        4.1962938090   -1.2792287166   -2.1808200598
H        5.1704862135    1.6926066051    2.0365915971
H        6.7469363588    1.6973331835    0.1191521722
H        3.1399477673    0.2782805451    1.9664977249
H        6.2787045319    0.2955175934   -1.8599786078
H        1.4640933761   -0.9008011693   -1.9669946698
H        0.8001105138    0.0722179367   -0.6322965110
H        0.3044945562   -1.6277955574   -0.8292803862
H        4.9509529450   -1.2383922580   -2.7917704737
18   

C        5.0275439674    1.0331200569    1.1988496514
C        5.8693798627    1.0699345145    0.0873067138
C        3.8679040532    0.2546136141    1.1683375815
C        5.5444627617    0.3277476448   -1.0519107018
C        3.5428392847   -0.4978245275    0.0325380724
C        4.3838305336   -0.4537563419   -1.0906133814
C        2.2553888184   -1.2841796603    0.0325155930
C        1.1591129441   -0.9687912028   -0.9756945436
O        2.0621335897   -2.1526924064    0.8700791312
O        4.0927669758   -1.1675915195   -2.2168891466
H        5.2720954161    1.6059341098    2.0863599755
H        6.7711741699    1.6724439244    0.1090976883
H        3.2161623735    0.2267323351    2.0359149975
H        6.2053687179    0.3665626957   -1.9088113073
H        1.4157840901   -1.3922631213   -1.9496847788
H        1.0486528755    0.1141995820   -1.0734574774
H        0.2091335645   -1.3948463581   -0.6416951440
H        4.8195656920   -1.0957420759   -2.8582404642
18   

C        5.0238361982    0.8999920578    1.2659797349
C        5.8416194678    0.9702153417    0.1386765925
C        3.8345499052    0.1689903836    1.2190311664
C        5.4646540179    0.3073212300   -1.0328081530
C        3.4536816969   -0.5034781805    0.0479737210
C        4.2747116043   -0.4279479527   -1.0907943493
C        2.1348636819   -1.2265628262    0.0548249545
C        1.1353179404   -1.0626734256   -1.0823055254
O        1.8274942007   -1.9241431991    1.0129604984
O        3.9434473291   -1.0671396331   -2.2503999360
H        5.3089641565    1.4111590178    2.1786758920
H        6.7657756498    1.5371828365    0.1735389821
H        3.2018534660    0.1189402883    2.0999340462
H        6.1098014306    0.3710747113   -1.9001600835
H        1.3051682297   -1.8365741190   -1.8352861205
H        1.2542596242   -0.0793809083   -1.5448701061
H        0.1156782385   -1.1523487940   -0.6980622279
H        4.6519626495   -0.9606616162   -2.9073073320
18   

C        5.0770859291    0.8538707583    1.2798328126
C        5.8709490999    0.9418143656    0.1379458921
C        3.8596999682    0.1714424311    1.2314795050
C        5.4437161757    0.3423580952   -1.0495379711
C        3.4201689122   -0.4326382186    0.0407205300
C        4.2257620116   -0.3456371598   -1.1122392319
C        2.0824425880   -1.1168180306    0.0737127527
C        1.1450247100   -1.1282066540   -1.1274519301
O        1.6868705618   -1.6163858788    1.1214236485
O        3.8643380961   -0.9313094270   -2.2907166057
H        5.4021335749    1.3140637104    2.2062138782
H        6.8168007814    1.4716840549    0.1745174610
H        3.2517159141    0.1132797875    2.1292577631
H        6.0745882515    0.4160723660   -1.9265513831
H        1.3817877129   -1.9792812806   -1.7712182602
H        1.2539718013   -0.2015532575   -1.6969045377
H        0.1083068305   -1.2131497944   -0.7905180400
H        4.5637840196   -0.8096119792   -2.9547053062
18   

C        5.0830098213    0.7998025597    1.3193374698
C        5.8609611811    0.8893163396    0.1682669842
C        3.8307047940    0.1846207058    1.2692036549
C        5.3831669600    0.3571648418   -1.0306945015
C        3.3329246644   -0.3496816010    0.0655402595
C        4.1299666392   -0.2644106479   -1.0982630742
C        1.9669680649   -0.9783938683    0.1183463243
C        1.1066664282   -1.2078727818   -1.1190034301
O        1.4736853313   -1.2520117208    1.2086311714
O        3.7350380460   -0.7845956954   -2.2960989856
H        5.4471614526    1.2072294086    2.2558396136
H        6.8338620209    1.3675767999    0.2066520839
H        3.2452422392    0.1312731400    2.1820301181
H        6.0042438516    0.4300994683   -1.9147457083
H        1.4613433895   -2.0904135084   -1.6576422231
H        1.1513420601   -0.3346738570   -1.7748359178
H        0.0656042484   -1.3687660803   -0.8255543054
H        4.4289762360   -0.6537208569   -2.9640896585
18   

C        5.1368197609    0.7417162957    1.3248051834
C        5.9095594517    0.8403127922    0.1720257171
C        3.8570325086    0.1876727448    1.2623507863
C        5.3966425075    0.3825852072   -1.0421945067
C        3.3234184494   -0.2794076574    0.0452144916
C        4.1148238419   -0.1761445654   -1.1239601854
C        1.9337491216   -0.8573044862    0.0966843421
C        1.2005330253   -1.4089624679   -1.1209809721
O        1.3396025054   -0.8958518344    1.1707119722
O        3.6851390760   -0.6003469065   -2.3470148889
H        5.5263533570    1.0945460056    2.2731866199
H        6.9041073015    1.2707884006    0.2201115315
H        3.2829163655    0.1269120837    2.1818019810
H        6.0121750707    0.4673545242   -1.9290721602
H        1.7624867859   -2.2430101542   -1.5489830324
H        1.0763611611   -0.6226346708   -1.8699042317
H        0.2104203012   -1.7704836809   -0.8294345171
H        4.3713633148   -0.4426378541   -3.0171390136
18   

C        5.1399417006    0.6652486806    1.3459473741
C        5.9096647390    0.7742044903    0.1910281518
C        3.8354123420    0.1734434769    1.2713793555
C        5.3676157079    0.3938529972   -1.0379942757
C        3.2784060294   -0.2209447857    0.0400085805
C        4.0604104595   -0.1001399539   -1.1308297883
C        1.8700857630   -0.7495810726    0.0729884152
C        1.2736311415   -1.6023571680   -1.0409366721
O        1.1817370469   -0.5623994570    1.0720154821
O        3.5850169984   -0.4302228421   -2.3663127715
H        5.5512228150    0.9613323004    2.3044992218
H        6.9234472199    1.1558850433    0.2485399499
H        3.2594732135    0.0975902554    2.1886606309
H        5.9783431715    0.4912402681   -1.9268869517
H        2.0021431225   -2.3446659333   -1.3768481347
H        0.9848882695   -0.9648488519   -1.8805891871
H        0.3865910074   -2.1271241307   -0.6754384561
H        4.2577060196   -0.2491428691   -3.0442430734
18   

C        4.6333768253    1.9329424108    0.1016785549
C        5.7639059428    1.1271494572   -0.0185699417
C        3.3673870202    1.3994544985   -0.1487914753
C        5.6227471576   -0.2114805691   -0.3929188990
C        3.2150583195    0.0531707736   -0.5233993714
C        4.3596343214   -0.7594388252   -0.6478089846
C        1.8128965991   -0.4423375250   -0.7404684171
C        1.3901683261   -1.8645637158   -0.3936949220
O        0.9522594038    0.3377799710   -1.1334834336
O        4.2780505670   -2.0667810383   -1.0307561224
H        4.7339947087    2.9734952143    0.3893264092
H        6.7477676307    1.5406581831    0.1757531545
H        2.4961276616    2.0397654320   -0.0490805474
H        6.5116931901   -0.8227483060   -0.4862603206
H        1.9515963378   -2.2216956005    0.4735349060
H        1.5804914484   -2.5231805097   -1.2450590078
H        0.3233530349   -1.8887810752   -0.1552784528
H        5.1679976818   -2.4495711106   -1.1106417747
18   

C        4.6038665291    1.9101859954    0.1632564512
C        5.7455798988    1.1228543269    0.0179766189
C        3.3485204632    1.3794519201   -0.1423504704
C        5.6254972801   -0.1946666280   -0.4332677710
C        3.2220406354    0.0596335647   -0.6014095864
C        4.3721697826   -0.7365978019   -0.7421822326
C        1.8346911296   -0.4603524828   -0.8603795496
C        1.3845613007   -1.8153209213   -0.3307931652
O        1.0270533710    0.2333182828   -1.4650992017
O        4.2955816810   -2.0249552322   -1.1863187027
H        4.6882542222    2.9331521647    0.5125741774
H        6.7213270009    1.5335920057    0.2545023103
H        2.4634031314    1.9974366720   -0.0263277567
H        6.5209616263   -0.7939294879   -0.5410024415
H        1.9340127571   -2.0605325647    0.5818688453
H        1.5752746550   -2.5855254038   -1.0825675589
H        0.3151879894   -1.7905124933   -0.1045748115
H        5.1867919963   -2.4005922572   -1.2837862647
18   

C        4.5677682000    1.8358735486    0.2279250295
C        5.7211097764    1.0771152833    0.0291872274
C        3.3209929032    1.3122003974   -0.1228594898
C        5.6201360003   -0.2049570677   -0.5187119260
C        3.2153089642    0.0315659743   -0.6802449048
C        4.3744688071   -0.7369888087   -0.8717092653
C        1.8424448056   -0.5069535345   -0.9982155475
C        1.3227358789   -1.7549966084   -0.2980264649
O        1.1161397421    0.0785887642   -1.7873617398
O        4.3077429725   -1.9915240563   -1.4050437604
H        4.6371519731    2.8311649287    0.6523985333
H        6.6905323604    1.4820474639    0.2993330290
H        2.4257928405    1.9064027717    0.0313099021
H        6.5229384530   -0.7844249607   -0.6661800391
H        1.5658834671   -1.7084862941    0.7665509380
H        1.7834342734   -2.6454578415   -0.7323373677
H        0.2375702053   -1.8244695891   -0.4126312934
H        5.2019926835   -2.3428407229   -1.5520977354
18   

C        4.6407452409    1.8267863942    0.3526211138
C        5.8060269304    1.0973515568    0.1184315187
C        3.4030623344    1.3038490689   -0.0309010369
C        5.7247281121   -0.1547730598   -0.4966320785
C        3.3155562498    0.0559228380   -0.6556509592
C        4.4872822321   -0.6831423342   -0.8816550184
C        1.9654372511   -0.5117718287   -1.0299057302
C        1.3704528767   -1.6467048452   -0.2089596964
O        1.3447822698   -0.0803508760   -1.9876716388
O        4.4351908208   -1.9127835977   -1.4723311826
H        4.6941747879    2.7990209045    0.8295826181
H        6.7687041037    1.5009333695    0.4135540720
H        2.4994924076    1.8767642179    0.1506254311
H        6.6351819611   -0.7148092185   -0.6699235433
H        1.2538524072   -1.3262847864    0.8294242361
H        2.0321270600   -2.5158532896   -0.2421392264
H        0.3926795751   -1.9285699764   -0.6093687183
H        5.3327484715   -2.2407705636   -1.6491175712
18   

C        4.6248892598    1.7745558492    0.4295402276
C        5.8108742074    1.0983047753    0.1447064833
C        3.4005361016    1.2315423130    0.0308123680
C        5.7631400259   -0.1218562249   -0.5345104517
C        3.3466797739    0.0168816565   -0.6579505931
C        4.5387636018   -0.6692658361   -0.9339328954
C        2.0198763456   -0.5797356977   -1.0753633099
C        1.2887908938   -1.5108251787   -0.1210730419
O        1.5206570610   -0.3175839679   -2.1559872953
O        4.5151575392   -1.8730339894   -1.5773387359
H        4.6524069173    2.7216788293    0.9565908208
H        6.7633749226    1.5175500664    0.4507928257
H        2.4818685293    1.7654947064    0.2502824038
H        6.6885635869   -0.6432196986   -0.7451353166
H        1.1277889120   -1.0074191820    0.8355402399
H        1.8905394249   -2.4085650521    0.0435630592
H        0.3221843789   -1.8001827138   -0.5427714738
H        5.4178808211   -2.1576899491   -1.7965589348
18   

C        4.6013855992    1.6757169916    0.5019554011
C        5.8138783854    1.0740236976    0.1664643935
C        3.3982152900    1.0905254321    0.0986739630
C        5.8143188468   -0.1140582721   -0.5688151371
C        3.3916856427   -0.0971020480   -0.6391016682
C        4.6117914157   -0.7049139257   -0.9729664058
C        2.0871838922   -0.7101778706   -1.0964170613
C        1.1356212396   -1.2997717746   -0.0663161770
O        1.7301550443   -0.6361832941   -2.2595425139
O        4.6386701945   -1.8760921128   -1.6734219126
H        4.5922986066    2.5995605145    1.0694279154
H        6.7500530186    1.5271053375    0.4746889372
H        2.4605692383    1.5735497453    0.3525743711
H        6.7604453520   -0.5765526164   -0.8208542481
H        1.0916665225   -0.6580178212    0.8170438336
H        1.4931210401   -2.2895004475    0.2299052876
H        0.1322833968   -1.3936075610   -0.4909327863
H        5.5465804594   -2.0886075206   -1.9453015482
18   

C        4.5873769401    1.5891786523    0.5710030750
C        5.8160857252    1.0573663659    0.1832784671
C        3.4013773660    0.9691332496    0.1695989583
C        5.8506140457   -0.0972989940   -0.6016723250
C        3.4262035409   -0.1879580558   -0.6189376908
C        4.6666469749   -0.7254585809   -1.0048188648
C        2.1378869441   -0.8202344679   -1.0829247623
C        1.0683740972   -1.1964381589   -0.0661122096
O        1.8879807669   -0.9476320896   -2.2702253857
O        4.7369425465   -1.8663152814   -1.7506789285
H        4.5521594770    2.4877255435    1.1768117079
H        6.7387814587    1.5386784382    0.4893629683
H        2.4546726560    1.4086710029    0.4640783415
H        6.8099936794   -0.5059997102   -0.8934520296
H        0.9027593054   -0.3783771063    0.6383449027
H        1.3913758008   -2.0829372972    0.4860615654
H        0.1274390026   -1.4194582492   -0.5769825951
H        5.6446561105   -2.0152496128   -2.0614425000
18   

C        4.5896341802    1.4929910296    0.6481590683
C        5.8229804606    1.0375991421    0.1887726109
C        3.4169433033    0.8414435645    0.2592721180
C        5.8756164145   -0.0743788827   -0.6531175319
C        3.4536729761   -0.2734179294   -0.5920953886
C        4.7060734437   -0.7363168275   -1.0453526755
C        2.1758319672   -0.9312762710   -1.0345160578
C        1.0531050430   -1.1592911002   -0.0315611825
O        1.9925979962   -1.2542376615   -2.1979606306
O        4.8118148714   -1.8395188103   -1.8419021957
H        4.5398555296    2.3567567020    1.3016830416
H        6.7356600704    1.5434717834    0.4851596915
H        2.4673310065    1.2240328346    0.6168936322
H        6.8402145012   -0.4256925059   -0.9976818509
H        0.5363876733   -0.2181184904    0.1714441735
H        1.4657305434   -1.5555585193    0.9000846830
H        0.3356778572   -1.8805306616   -0.4332036191
H        5.7172440413   -1.9336582208   -2.1785105325
18   

C        4.5826632098    1.4237068782    0.7108281698
C        5.8176382424    1.0461818303    0.1930187547
C        3.4274337081    0.7374722381    0.3308361422
C        5.8899833877   -0.0242298774   -0.6980374590
C        3.4775569990   -0.3374059328   -0.5740333023
C        4.7395327277   -0.7229813504   -1.0840153883
C        2.2133872515   -1.0303569648   -0.9864765866
C        1.0264262024   -1.0897589630   -0.0326453391
O        2.0871653499   -1.5527736810   -2.0846796626
O        4.8844434535   -1.7840944833   -1.9299148208
H        4.5174260275    2.2542804623    1.4048018712
H        6.7168346353    1.5792299199    0.4829621502
H        2.4800889403    1.0673826299    0.7423461919
H        6.8577378667   -0.3155376493   -1.0868879836
H        0.4810625394   -0.1429477772   -0.0592288212
H        1.3745465838   -1.2829995864    0.9855319781
H        0.3512051141   -1.8974033247   -0.3294580291
H        5.7934630883   -1.8355862679   -2.2650853465
18   

C        4.6207900374    1.3814590864    0.7150208216
C        5.8377373969    1.0479810564    0.1324740470
C        3.4647988220    0.6795402156    0.3686603171
C        5.8910279029    0.0068742545   -0.7919491586
C        3.4892121383   -0.3712249734   -0.5686232400
C        4.7405654587   -0.7083133155   -1.1476939692
C        2.2250232610   -1.0910941863   -0.9251415909
C        0.9827395684   -0.9537663165   -0.0512910695
O        2.1364666913   -1.8138890230   -1.9086446949
O        4.8848073381   -1.7305616596   -2.0401900019
H        4.5697222779    2.1894924618    1.4362837447
H        6.7377644715    1.5924496553    0.3975958027
H        2.5379597882    0.9820619092    0.8421447629
H        6.8462522402   -0.2483905834   -1.2335671410
H        0.5472086443    0.0407829538   -0.1775931483
H        1.2438555296   -1.1115399263    0.9984648408
H        0.2392607277   -1.7023746365   -0.3401063918
H        5.7951709775   -1.7736718790   -2.3721083777
18   

C        4.6296201149    1.3631536694    0.7326776836
C        5.8322206729    1.0850063415    0.0954469289
C        3.4864214599    0.6250096212    0.4213919426
C        5.8829987931    0.0661348132   -0.8527034577
C        3.5073892624   -0.4113221858   -0.5332159435
C        4.7452474005   -0.6839005066   -1.1766033194
C        2.2589105601   -1.1798849009   -0.8387197265
C        0.9501179690   -0.8554548805   -0.1252594954
O        2.2285397163   -2.0876898648   -1.6594186106
O        4.8890443120   -1.6621162826   -2.1171690325
H        4.5801025510    2.1545147815    1.4723126698
H        6.7226535207    1.6565268527    0.3347956461
H        2.5753353080    0.8835827892    0.9479434258
H        6.8262915217   -0.1410745009   -1.3425142000
H        0.6576814638    0.1772124548   -0.3326086507
H        1.0667093809   -0.9982211586    0.9522097375
H        0.1566413372   -1.5196081116   -0.4802676186
H        5.8023436526   -1.6989124078   -2.4413937845
