19   

C        2.1670136631   -0.4885450599   -0.0248290611
C        0.8667347100   -0.3835903338    0.4526153237
C        3.1485067885   -1.0993539926    0.7575350579
C        0.5593290872   -0.8885956034    1.7143608773
C        3.8455313860   -3.0606836628    3.9269559392
C        6.1165535629   -2.6573390242    3.1789163219
C        2.8595678527   -1.6261686417    2.0394869149
C        1.5354982797   -1.5023338787    2.5111865296
C        3.9436541638   -2.2531196598    2.8176715337
N        5.2559536655   -2.0428233336    2.4045458545
O        1.1466514407   -1.9387538069    3.7453341363
S        5.4111197461   -3.5708181737    4.4988672797
H        2.4214720196   -0.0965155246   -1.0030176561
H        0.1007713821    0.0908996930   -0.1511295359
H        4.1511204057   -1.1633232438    0.3488858398
H       -0.4569956451   -0.7933608715    2.0757299611
H        2.9212883311   -3.3667612435    4.3938448998
H        7.1866665650   -2.6074576847    3.0149791715
H        0.2151393001   -1.7095227601    3.9017906494
19   

C        2.1435889141   -0.5681231166   -0.0585202833
C        0.8650159212   -0.3924084040    0.4603202599
C        3.1269633992   -1.1929309756    0.7111480342
C        0.5807644847   -0.8386838814    1.7508688376
C        3.8234142260   -3.2201147347    3.7912726001
C        6.1011834799   -2.5353377449    3.3018532052
C        2.8553042259   -1.6653321477    2.0135402712
C        1.5598704631   -1.4652098420    2.5330394600
C        3.9427949656   -2.2888855373    2.7904260251
N        5.2532108141   -1.9092502586    2.5217701331
O        1.2180336013   -1.8460220243    3.8001118872
S        5.3794295813   -3.6590930347    4.4425739346
H        2.3792515055   -0.2180023405   -1.0570900734
H        0.0985678111    0.0939166959   -0.1332970054
H        4.1182577378   -1.3137743334    0.2872644180
H       -0.4160765797   -0.6866837254    2.1455135814
H        2.8837124466   -3.6343883708    4.1291994132
H        7.1713030356   -2.3731059950    3.2465892957
H        0.3158423186   -1.5491281108    4.0063675314
19   

C        2.1117993456   -0.6269006954   -0.0850661953
C        0.8597470797   -0.3830858662    0.4738527705
C        3.0969971150   -1.2689344673    0.6687554844
C        0.6036275850   -0.7768486074    1.7885319302
C        3.8160945156   -3.3498642367    3.6511796365
C        6.0543156572   -2.4236832325    3.4473911621
C        2.8463203669   -1.6940259874    1.9875803346
C        1.5852664876   -1.4203775326    2.5526846005
C        3.9396097116   -2.3151981969    2.7622582456
N        5.2205586247   -1.7880727791    2.6590529346
O        1.2896816344   -1.7620539743    3.8427289146
S        5.3477313502   -3.7278055599    4.3922663483
H        2.3253991807   -0.3135751103   -1.1006691290
H        0.0927607248    0.1171930771   -0.1073354052
H        4.0740969934   -1.4396513678    0.2291139533
H       -0.3703789199   -0.5714816500    2.2147307691
H        2.8812780330   -3.8506059701    3.8648032235
H        7.1044707984   -2.1640681777    3.5130902217
H        0.4178171919   -1.4116909052    4.0907499478
19   

C        2.0836867040   -0.6758153976   -0.1004904332
C        0.8617520553   -0.3717020132    0.4973463989
C        3.0776858400   -1.3228794378    0.6380591688
C        0.6440824593   -0.7094053220    1.8353342404
C        3.8548284083   -3.4622140031    3.4858446184
C        6.0046390663   -2.3321320723    3.6158256499
C        2.8593909276   -1.6939537230    1.9760559761
C        1.6346546934   -1.3581410415    2.5827173849
C        3.9601996289   -2.3158469467    2.7465701108
N        5.1844305678   -1.6688644254    2.8359197104
O        1.3888272756   -1.6580723597    3.8933396467
S        5.3482190022   -3.8072710482    4.3157542411
H        2.2667828786   -0.4040914468   -1.1338807188
H        0.0885891597    0.1324235799   -0.0722138337
H        4.0350363532   -1.5387107820    0.1757101057
H       -0.3052750183   -0.4580954114    2.2914601103
H        2.9497075223   -4.0509734989    3.5522830660
H        7.0149307549   -1.9953980115    3.8169655853
H        0.5452618644   -1.2667286677    4.1749843990
19   

C        2.0516121637   -0.7300317079   -0.1249530538
C        0.8617460763   -0.3592451419    0.5012919006
C        3.0523838589   -1.3743169800    0.6074277973
C        0.6811951369   -0.6294900080    1.8605875164
C        3.9141953877   -3.5735411526    3.2568948925
C        5.9224152607   -2.3051726219    3.7862404381
C        2.8696401018   -1.6710326223    1.9676633929
C        1.6780546159   -1.2756505601    2.6013596980
C        3.9665434874   -2.3096999314    2.7380638445
N        5.1076812493   -1.5869788673    3.0506410465
O        1.4734553061   -1.5233366491    3.9296516354
S        5.3606427109   -3.9307749906    4.1616846161
H        2.2035492672   -0.5129631584   -1.1761738742
H        0.0837750362    0.1424141670   -0.0638867390
H        3.9844576930   -1.6451878453    0.1233710283
H       -0.2438743008   -0.3304586794    2.3373472758
H        3.0718661504   -4.2401928365    3.1301647336
H        6.8743137213   -1.9254044909    4.1386588793
H        0.6554404480   -1.0941320805    4.2301098544
19   

C        1.9971517449   -0.8307554349   -0.1428235808
C        0.8440691169   -0.3838262236    0.5031794589
C        3.0098614826   -1.4538189898    0.5916967144
C        0.7088129812   -0.5621786366    1.8830687689
C        4.0408609959   -3.6378935514    2.9839238156
C        5.8406342692   -2.3042895122    3.9369302205
C        2.8781835428   -1.6409143705    1.9766401346
C        1.7169939043   -1.1868164688    2.6268477622
C        3.9672859016   -2.2933378156    2.7492391525
N        4.9962522580   -1.5378159956    3.2890694381
O        1.5526936449   -1.3594047275    3.9724074784
S        5.4534104563   -4.0218747715    3.9305651429
H        2.1097760615   -0.6910996741   -1.2119869722
H        0.0571865799    0.1014908417   -0.0639333029
H        3.9100827675   -1.7908804238    0.0895309228
H       -0.1910605012   -0.2119716191    2.3730212725
H        3.3076144477   -4.3514361762    2.6329622629
H        6.7172322052   -1.9097086161    4.4373333799
H        0.7585972668   -0.8914306052    4.2782459663
19   

C        1.9280924836   -0.9459569984   -0.1465786974
C        0.8174027784   -0.4163467907    0.5105535368
C        2.9494915993   -1.5520711931    0.5898658971
C        0.7301067924   -0.5009196024    1.9029728495
C        4.2057612849   -3.6350099257    2.7252016372
C        5.7567987955   -2.3159967477    4.0592403684
C        2.8753465032   -1.6291669692    1.9902385441
C        1.7468023918   -1.1080356186    2.6498544149
C        3.9591757243   -2.2904790903    2.7581762694
N        4.8570645726   -1.5413047855    3.5026292095
O        1.6182997064   -1.2002379635    4.0071404108
S        5.5971794438   -4.0315710737    3.6976813924
H        2.0001782328   -0.8848313611   -1.2265786241
H        0.0239035778    0.0564065264   -0.0579589623
H        3.8136583663   -1.9577228741    0.0753240218
H       -0.1411959041   -0.0943481782    2.4009667484
H        3.6068891895   -4.3446430094    2.1704375382
H        6.5478308434   -1.9275399836    4.6900137220
H        0.8526084179   -0.6861052113    4.3103009963
19   

C        1.8594148070   -1.0479788617   -0.1418183409
C        0.7927374725   -0.4435762503    0.5219155817
C        2.8860332363   -1.6479809008    0.5918235814
C        0.7532856378   -0.4501886861    1.9184284563
C        4.3649496899   -3.5874947408    2.5343042164
C        5.6663092936   -2.3423841243    4.1705279586
C        2.8662811032   -1.6427521757    1.9977907942
C        1.7750061765   -1.0507923570    2.6642081135
C        3.9567111300   -2.2996638409    2.7525972833
N        4.7180897646   -1.5891791959    3.6682852435
O        1.6769058147   -1.0713314399    4.0270003345
S        5.7297056413   -3.9855035354    3.5432769056
H        1.8935248102   -1.0493395376   -1.2254234767
H       -0.0049168905    0.0250570322   -0.0441973771
H        3.7150049849   -2.1094117067    0.0666323802
H       -0.0872024819    0.0105831976    2.4221467698
H        3.8928619990   -4.2602186560    1.8311342757
H        6.3673484456   -1.9769946246    4.9118223842
H        0.9403432680   -0.5129043206    4.3227848420
19   

C        1.7952633859   -1.1383987194   -0.1359380408
C        0.7723149193   -0.4642203193    0.5264189411
C        2.8224368759   -1.7376496006    0.5966860376
C        0.7776753013   -0.4008185156    1.9209754565
C        4.4971949617   -3.5238014602    2.3966495275
C        5.5694666882   -2.4038011932    4.2698783471
C        2.8506293493   -1.6674839402    2.0033414641
C        1.7998531746   -1.0001818740    2.6679779281
C        3.9562470365   -2.3126776686    2.7405260045
N        4.5880996783   -1.6747531811    3.7975188343
O        1.7244624845   -0.9485156355    4.0313556184
S        5.8277008562   -3.9355811033    3.4450225919
H        1.7962156891   -1.1933350911   -1.2187058891
H       -0.0261371397    0.0044755256   -0.0385309032
H        3.6173561952   -2.2459822326    0.0627258192
H       -0.0309832490    0.1139333723    2.4245321349
H        4.1347527851   -4.1427746594    1.5873336350
H        6.1830380960   -2.0827775717    5.1035064857
H        1.0096010226   -0.3551251309    4.3107110239
19   

C        1.7318373301   -1.2157207153   -0.1149190718
C        0.7459223593   -0.4881636718    0.5430234423
C        2.7646015232   -1.8071145016    0.6152337221
C        0.7961847425   -0.3622871424    1.9309332798
C        4.6334764669   -3.4271526035    2.2959492815
C        5.4842028286   -2.4757247630    4.3629480978
C        2.8386540050   -1.6842870509    2.0199404236
C        1.8242885417   -0.9527560100    2.6779826754
C        3.9683649781   -2.3099472105    2.7363910260
N        4.4733464975   -1.7747401751    3.9121727520
O        1.7721990509   -0.8251313204    4.0373559270
S        5.9294255716   -3.8610493054    3.3781504032
H        1.7013068174   -1.3170841706   -1.1939223259
H       -0.0573503563   -0.0248861578   -0.0195781986
H        3.5285648356   -2.3479184499    0.0694356883
H        0.0157691225    0.1968027982    2.4317889540
H        4.3773551272   -3.9809139314    1.4036331737
H        6.0106997284   -2.2175254856    5.2743087444
H        1.0635987615   -0.2157867680    4.2964904695
19   

C        1.6719302309   -1.2958739201   -0.0962390170
C        0.7195527854   -0.5206317711    0.5520666124
C        2.7137341464   -1.8726747048    0.6319011284
C        0.8156653485   -0.3300248032    1.9283898502
C        4.7709529129   -3.3079008170    2.2146154786
C        5.3904265047   -2.5887309208    4.4473136237
C        2.8346265341   -1.6949446439    2.0310778532
C        1.8538211163   -0.9038042587    2.6755777406
C        3.9803939545   -2.3091725007    2.7348592227
N        4.3552206230   -1.9157162088    4.0113073160
O        1.8352305192   -0.6840068935    4.0238384918
S        6.0240565397   -3.7833731978    3.3294112945
H        1.6087525114   -1.4466787538   -1.1680477121
H       -0.0913372464   -0.0684962797   -0.0086948151
H        3.4417934785   -2.4480232318    0.0749825885
H        0.0627245389    0.2715895947    2.4220083922
H        4.6360021118   -3.7687457821    1.2472384187
H        5.8247158963   -2.4196878438    5.4257004430
H        1.1170303723   -0.0779153067    4.2624193464
19   

C        1.6188220573   -1.3746886357   -0.0698341232
C        0.6996165559   -0.5525250600    0.5659364175
C        2.6724576451   -1.9334012489    0.6549730029
C        0.8426653020   -0.2952912272    1.9262832456
C        4.9221541677   -3.1372738050    2.1610290206
C        5.2636926705   -2.7553281043    4.5308187149
C        2.8437008402   -1.6895366984    2.0406820030
C        1.8946340882   -0.8476209916    2.6708981702
C        3.9840958599   -2.3153326925    2.7462179541
N        4.2054504137   -2.1154235975    4.1015566806
O        1.9316184914   -0.5238151762    3.9975693841
S        6.1143215848   -3.6826263313    3.3102950689
H        1.5171509652   -1.5819731761   -1.1291883421
H       -0.1214056992   -0.1153338246    0.0080605915
H        3.3539696642   -2.5646601717    0.1016631193
H        0.1179702188    0.3481143926    2.4093863062
H        4.9448567806   -3.4274080202    1.1217841811
H        5.5898050701   -2.7150220003    5.5635054070
H        1.1942563236    0.0616310174    4.2286365874
19   

C        1.5756665118   -1.4584748395   -0.0467070837
C        0.6884162649   -0.5879369862    0.5723792357
C        2.6400387933   -1.9991264821    0.6765196586
C        0.8749935858   -0.2620324820    1.9135722591
C        5.0438390885   -2.9391120424    2.1382302007
C        5.1401745862   -2.9387317643    4.5624601188
C        2.8524463632   -1.6844867359    2.0402538617
C        1.9398169773   -0.7938169836    2.6542735456
C        3.9818756343   -2.3175588396    2.7538159092
N        4.0602336826   -2.3312744354    4.1388685593
O        2.0525043709   -0.3816209457    3.9519111895
S        6.1826494410   -3.5674959589    3.2989956058
H        1.4366687247   -1.7221909224   -1.0891276337
H       -0.1415152438   -0.1659549620    0.0159910446
H        3.2882174234   -2.6899395764    0.1531637696
H        0.1792986277    0.4228687205    2.3820148686
H        5.1845072163   -3.0197498421    1.0704640398
H        5.3725077018   -3.0464432794    5.6154768604
H        1.3048802200    0.1846641693    4.1977916689
19   

C        2.0376316863   -0.4603493310    0.0386728374
C        0.7799031082   -0.3354778699    0.6190389824
C        3.0744198656   -1.0692539935    0.7484385891
C        0.5689172009   -0.8157567709    1.9111402129
C        5.3266798993   -1.9331017974    2.5160747899
C        4.9375979667   -3.6935760287    4.1441839303
C        2.8792801933   -1.5699764579    2.0541494782
C        1.6001353876   -1.4262038984    2.6375555159
C        4.0058221477   -2.2274820184    2.7466454074
N        3.8026419027   -3.2410719359    3.6713969207
O        1.3246005821   -1.8231253002    3.9156188280
S        6.3768817433   -2.9280426490    3.4887381026
H        2.2097933881   -0.0912403406   -0.9661011938
H       -0.0295421880    0.1347195445    0.0712198854
H        4.0355502213   -1.1704948493    0.2585527223
H       -0.4118278965   -0.7014019842    2.3556051400
H        5.6744810498   -1.1697851345    1.8342681280
H        4.9857689702   -4.4856102772    4.8822929244
H        0.3782857627   -1.7294029736    4.1060632434
19   

C        2.0238897055   -0.5515168233   -0.0100162241
C        0.7818242191   -0.3666930692    0.5922417512
C        3.0620949971   -1.1521394316    0.7057598633
C        0.5875272169   -0.7762729100    1.9125645141
C        5.3007594603   -1.8001265606    2.6558350292
C        4.9480855240   -3.7768959209    4.0274329764
C        2.8761670080   -1.5861203729    2.0330091111
C        1.6211216055   -1.3768272286    2.6427084933
C        3.9996448211   -2.2186634689    2.7538679696
N        3.8134622705   -3.3577751392    3.5227665322
O        1.3867143737   -1.7104300389    3.9468989513
S        6.3599552921   -2.8252246084    3.5865172047
H        2.1824347442   -0.2338891560   -1.0344094128
H       -0.0279021418    0.0972545574    0.0395522400
H        4.0176124442   -1.3000748672    0.2153417986
H       -0.3784434022   -0.6138983551    2.3740913479
H        5.6203183523   -0.9399037355    2.0836588730
H        5.0133228201   -4.6514692149    4.6640854433
H        0.4461982985   -1.6070325016    4.1611738665
19   

C        1.9988867261   -0.6496081292   -0.0468863764
C        0.7808581393   -0.3908069908    0.5800427919
C        3.0375092754   -1.2490994403    0.6700799040
C        0.6102772839   -0.7250686320    1.9257783862
C        5.2499003091   -1.6931707313    2.8212557495
C        4.9785702159   -3.8553783722    3.9039730914
C        2.8697709514   -1.6077844189    2.0193097981
C        1.6449220078   -1.3236910473    2.6551628275
C        3.9906741597   -2.2258010665    2.7621589508
N        3.8499678210   -3.4689838448    3.3602466551
O        1.4504787818   -1.5965969351    3.9799095281
S        6.3261678812   -2.7408766259    3.7061041085
H        2.1384538684   -0.3889175067   -1.0899249509
H       -0.0283968371    0.0724906438    0.0261332176
H        3.9788795388   -1.4527192984    0.1717828581
H       -0.3357353597   -0.5067028499    2.4051923801
H        5.5268187179   -0.7458477471    2.3787987564
H        5.0777188905   -4.7979982557    4.4294447652
H        0.5204456690   -1.4606219414    4.2215778499
19   

C        1.9667015532   -0.7588029984   -0.0876254417
C        0.7778528367   -0.4198809845    0.5586522925
C        3.0063905896   -1.3526359369    0.6330732463
C        0.6362203896   -0.6711136091    1.9262686347
C        5.1634976417   -1.5977477525    3.0336924988
C        5.0291006814   -3.9134770567    3.7715670722
C        2.8668449360   -1.6203856579    2.0047082277
C        1.6725214247   -1.2635770587    2.6578070826
C        3.9855171922   -2.2360653805    2.7606188658
N        3.9215553936   -3.5605277351    3.1647263900
O        1.5137314924   -1.4699790089    3.9992281294
S        6.2594030219   -2.6586951936    3.8777338469
H        2.0827804106   -0.5645380439   -1.1478701372
H       -0.0316689709    0.0393587842    0.0017700522
H        3.9268554385   -1.6193516516    0.1254340436
H       -0.2878093358   -0.3952504969    2.4187483277
H        5.3708296697   -0.5717181786    2.7611750561
H        5.1803876602   -4.9091742698    4.1718239117
H        0.5978151701   -1.2865952814    4.2637815111
19   

C        1.9275085051   -0.8780788003   -0.1229699806
C        0.7746318622   -0.4545056115    0.5389343133
C        2.9746925607   -1.4541170297    0.6015329637
C        0.6739883512   -0.6093036687    1.9246060451
C        5.0344581766   -1.5357150852    3.3047935837
C        5.0908800097   -3.9460575137    3.6409221735
C        2.8824623781   -1.6076483833    1.9937801459
C        1.7184311544   -1.1834384250    2.6589806755
C        3.9972624715   -2.2333371132    2.7517472240
N        4.0352778011   -3.6058348908    2.9408208167
O        1.5982853548   -1.3109332389    4.0141990723
S        6.1371768179   -2.6129728778    4.1186710664
H        2.0094437383   -0.7649063099   -1.1980403124
H       -0.0403217841   -0.0085986987   -0.0208439064
H        3.8655552428   -1.7925696773    0.0838534011
H       -0.2252753105   -0.2758635739    2.4272133963
H        5.1359030771   -0.4604153801    3.2464349575
H        5.3068803203   -4.9750964598    3.9034937800
H        0.6982165419   -1.0799981472    4.2964602513
19   

C        1.8838583509   -0.9847744980   -0.1380537869
C        0.7670292399   -0.4820940689    0.5294005229
C        2.9396742602   -1.5386788025    0.5909531551
C        0.7089844595   -0.5418606647    1.9245470682
C        4.8738752041   -1.5518504325    3.5671599266
C        5.1600389072   -3.9671398621    3.4865348416
C        2.9000273873   -1.5809635377    1.9938930511
C        1.7627685086   -1.0938961785    2.6626528570
C        4.0094630124   -2.2203129983    2.7454646706
N        4.1693332474   -3.5971346177    2.7104604217
O        1.6754592828   -1.1411089477    4.0256388187
S        5.9829654193   -2.6592992873    4.3300194322
H        1.9305913905   -0.9526628216   -1.2206684787
H       -0.0547760265   -0.0530957230   -0.0335573557
H        3.7990843601   -1.9460465946    0.0695027222
H       -0.1663558932   -0.1548891219    2.4310102554
H        4.8453081104   -0.4823078362    3.7261175122
H        5.4519684651   -5.0045244742    3.6011848540
H        0.7899765304   -0.8668190045    4.3160288627
19   

C        1.8660438958   -1.0522181978   -0.1394390881
C        0.7800249840   -0.4777537695    0.5190309901
C        2.9191052951   -1.5969976357    0.5997833279
C        0.7495942969   -0.4593687152    1.9155953800
C        4.7292136844   -1.6237002390    3.7642611499
C        5.2583991440   -3.9562313223    3.3227312166
C        2.9133908422   -1.5578393019    2.0047734382
C        1.8007401122   -1.0028698868    2.6641801094
C        4.0132735737   -2.2063006718    2.7544126991
N        4.3103826039   -3.5406842167    2.5168128188
O        1.7265251865   -0.9791874935    4.0287516171
S        5.8688072922   -2.7503982590    4.4497611877
H        1.8910471129   -1.0842701457   -1.2227680606
H       -0.0402203750   -0.0557911359   -0.0514661712
H        3.7524287309   -2.0623007702    0.0840945604
H       -0.1046029259   -0.0200062439    2.4153891057
H        4.5785143823   -0.6046635901    4.0946378394
H        5.6384624267   -4.9708678331    3.2982108819
H        0.8542004509   -0.6585933244    4.3122047194
19   

C        1.8461862621   -1.1071170739   -0.1407372428
C        0.7901498713   -0.4632095428    0.4992911096
C        2.8880067632   -1.6523382274    0.6131953661
C        0.7793348417   -0.3757841016    1.8925824978
C        4.6017069123   -1.7064188202    3.8999340264
C        5.3778221077   -3.8938477629    3.1775502375
C        2.9038884267   -1.5510405945    2.0175953122
C        1.8188613394   -0.9201350578    2.6572641841
C        3.9978860273   -2.1954652065    2.7720167351
N        4.4428247271   -3.4490842495    2.3721973756
O        1.7458588563   -0.8283554872    4.0190912586
S        5.8003916707   -2.8185733799    4.5034519352
H        1.8578710278   -1.1920149211   -1.2214328506
H       -0.0218660462   -0.0405078996   -0.0823275096
H        3.6977678105   -2.1658295659    0.1054879851
H       -0.0530839743    0.1178372404    2.3783052725
H        4.3495457177   -0.7572008969    4.3534307828
H        5.8564233603   -4.8560168622    3.0371432104
H        0.8896283348   -0.4528265145    4.2841640313
19   

C        1.8195915401   -1.1736510883   -0.1341851636
C        0.8020321170   -0.4579298188    0.4880180792
C        2.8455473656   -1.7322156626    0.6308110051
C        0.8151884957   -0.3112292910    1.8750237379
C        4.4936343672   -1.8275399866    4.0007154488
C        5.5079877684   -3.8231178315    3.0597664908
C        2.8852784093   -1.5821581813    2.0340514310
C        1.8383270413   -0.8688231825    2.6530040658
C        3.9770513763   -2.2214147237    2.7919360845
N        4.5700323002   -3.3641459487    2.2665726251
O        1.7673124904   -0.7126275816    4.0086968612
S        5.7637937882   -2.8972805364    4.5302675750
H        1.8159839164   -1.3018744816   -1.2106650255
H        0.0022135338   -0.0238225046   -0.1020476222
H        3.6252056931   -2.2908294277    0.1238310734
H        0.0116006433    0.2402398190    2.3469018329
H        4.1598280759   -0.9597112467    4.5523515527
H        6.0859223726   -4.7093878360    2.8251479250
H        0.9362079617   -0.2708950732    4.2511306240
19   

C        1.7713228719   -1.2485007568   -0.1249638018
C        0.7974218505   -0.4626229609    0.4780337346
C        2.7841113455   -1.8174699684    0.6490174575
C        0.8428453163   -0.2552704355    1.8551566506
C        4.3732468073   -1.9765799575    4.0880612509
C        5.6230593373   -3.7283420866    2.9704537873
C        2.8557750506   -1.6159827465    2.0485475311
C        1.8528328412   -0.8222540825    2.6444380713
C        3.9477419450   -2.2509626867    2.8090124676
N        4.6850494027   -3.2543645711    2.1872594916
O        1.7967090477   -0.5883426449    3.9886550621
S        5.7117257405   -2.9894689665    4.5580761087
H        1.7461866151   -1.4216656293   -1.1948568148
H        0.0079507044   -0.0190473011   -0.1188955068
H        3.5266408809   -2.4231586245    0.1409707152
H        0.0729495286    0.3540497536    2.3118437868
H        3.9540776700   -1.2198589093    4.7342526058
H        6.2973126181   -4.5178707055    2.6597574189
H        1.0029050085   -0.0704542980    4.2040777242
19   

C        1.6904795665   -1.3422052521   -0.1042462145
C        0.7646588937   -0.4925131163    0.4856444464
C        2.7059806694   -1.9085723285    0.6676018646
C        0.8634544043   -0.2161265316    1.8470697055
C        4.2373420293   -2.1651727946    4.1486918054
C        5.7281400537   -3.6102694232    2.9005255031
C        2.8292847410   -1.6439767760    2.0548688362
C        1.8779748236   -0.7775463467    2.6351328430
C        3.9262528502   -2.2756264943    2.8111664720
N        4.8000085815   -3.1118295343    2.1214577181
O        1.8832738556   -0.4405957793    3.9576894238
S        5.6381271085   -3.1102760729    4.5766708325
H        1.6265642920   -1.5668362956   -1.1629043901
H       -0.0264852307   -0.0497240652   -0.1096548585
H        3.4055394970   -2.5657764242    0.1629721317
H        0.1336704903    0.4485459662    2.2922885398
H        3.7008354807   -1.5738622137    4.8741250859
H        6.4958746371   -4.2827150793    2.5359880957
H        1.1472308870    0.1643649172    4.1501102038
