65

C      3.52218   -7.07043   -1.53396
C      3.62485   -5.17753   -0.02792
C      2.31999   -7.48031   -0.94776
C      2.43142   -5.57917    0.57420
C      4.18038   -5.90790   -1.09157
C      5.42768   -5.44955   -1.77816
C      5.39344   -4.30117   -2.60027
C      6.61562   -6.18298   -1.66984
C      1.79315   -6.72113    0.09350
C      6.57471   -3.91360   -3.26498
C      7.72556   -5.76214   -2.43509
C     -1.18361   -4.30333   -3.91396
C     -0.50970   -3.44682   -2.83552
C     -0.35829   -4.31807   -5.20649
C      0.93245   -3.90694   -2.56391
C      1.08249   -4.78422   -4.94282
C      1.73964   -3.91886   -3.86418
C      6.14913   -3.04460   -5.58042
C      8.07903   -2.11297   -4.23605
C     10.03722   -5.83481   -1.49378
C      9.61529   -6.61817   -3.87343
C      4.08904   -3.57478   -2.80827
C      6.67962   -7.40995   -0.79365
C      6.65725   -2.68708   -4.16831
C      9.04102   -6.51945   -2.45150
N      7.68698   -4.64781   -3.17581
N      3.13911   -4.45508   -3.60708
O      6.37658   -8.54851   -1.61782
F      0.63043   -7.10445    0.65854
H      3.97730   -7.67701   -2.31194
H      4.14188   -4.29797    0.34740
H      1.80744   -8.38041   -1.27325
H      1.99971   -5.03003    1.40521
H     -2.18928   -3.92370   -4.11802
H     -1.30422   -5.32991   -3.54419
H     -0.50113   -2.39550   -3.15036
H     -1.07597   -3.48800   -1.90050
H     -0.81602   -4.97545   -5.95133
H     -0.33839   -3.31236   -5.64504
H      1.39652   -3.25396   -1.81909
H      0.92130   -4.92074   -2.14255
H      1.06955   -5.82955   -4.60469
H      1.66953   -4.74656   -5.86933
H      1.87982   -2.89852   -4.23610
H      6.75121   -3.85161   -6.00881
H      6.21300   -2.17860   -6.24594
H      5.10082   -3.37543   -5.57809
H      8.76831   -2.82360   -4.69557
H      8.45815   -1.87914   -3.23729
H      8.07671   -1.19225   -4.82753
H     10.23941   -4.81148   -1.82479
H     10.98386   -6.38355   -1.47614
H      9.65192   -5.79035   -0.46908
H      9.84686   -5.62797   -4.27204
H      8.90822   -7.10525   -4.55267
H     10.53472   -7.21134   -3.85965
H      3.57625   -3.34824   -1.87644
H      4.20135   -2.65400   -3.37559
H      7.67459   -7.50669   -0.34651
H      5.95522   -7.32405    0.02472
H      6.01237   -1.90100   -3.75830
H      8.85720   -7.53724   -2.09977
H      3.05759   -5.35179   -3.10239
H      3.59413   -4.67158   -4.50192
H      6.51685   -9.35268   -1.09130
