52

C     -3.04395   -0.60831   -1.06075
C     -1.95313    0.29851   -0.77731
C     -0.92310   -0.33265   -0.13107
C     -4.30463   -0.30640   -1.71816
C     -2.81445   -1.89415   -0.61523
C     -4.95230   -2.70718   -1.38072
C      0.21489    2.39635    1.59157
C     -6.85220   -2.14333   -3.72071
C     -0.52636    1.73341    3.71055
C     -0.57674    0.52583    2.75624
C     -2.38525   -6.57403   -0.70723
C     -3.32944   -5.73924   -2.36723
C     -6.31564   -0.79154   -4.12698
C     -2.59904   -5.11117   -1.15615
C     -6.37290   -1.18347   -2.66345
C     -1.96454    1.75529   -1.15007
C     -5.00168   -0.69462   -4.87327
C      0.36877    0.23493    0.40117
C     -3.43546   -4.26045   -0.20694
N     -5.13768   -1.44049   -1.94361
N     -3.71904   -2.92184   -0.74606
N     -0.39878    2.83919    2.76044
N      0.21400    1.00752    1.62815
O     -4.66749    0.80748   -2.07820
O     -5.79151   -3.59747   -1.43812
O      0.66235    3.09952    0.69218
O     -3.08254   -7.08477   -1.86962
S     -1.26716   -2.04327    0.15898
H     -7.91855   -2.34406   -3.75426
H     -6.23001   -3.00787   -3.92485
H     -1.43289    1.82103    4.31423
H      0.34307    1.66540    4.37875
H     -0.14260   -0.37641    3.19731
H     -1.60802    0.30453    2.44890
H     -1.34378   -6.91465   -0.67306
H     -2.89078   -6.85790    0.22563
H     -4.39926   -5.52065   -2.43480
H     -2.85006   -5.57995   -3.33972
H     -7.04714   -0.03562   -4.40252
H     -1.67333   -4.59385   -1.41936
H     -7.12191   -0.68759   -2.05342
H     -2.75987    2.27946   -0.61156
H     -1.01466    2.24032   -0.92181
H     -2.18746    1.87412   -2.21366
H     -4.28643   -1.44660   -4.52389
H     -4.54840    0.29130   -4.74001
H     -5.15915   -0.86453   -5.94408
H      1.08611   -0.57504    0.57799
H      0.81986    0.91130   -0.32869
H     -2.91869   -4.13429    0.75100
H     -4.39631   -4.73731   -0.01266
H     -0.11659    3.75767    3.07990
