66

C      1.57912   -1.22780  -11.92927
C     -0.90462   -0.48639   -5.63758
C      0.92061   -0.31709  -11.10351
C     -0.71626   -0.89637   -4.31804
C      1.39866    0.21799   -5.77507
C      0.85331   -2.29841  -12.46458
C     -1.07202   -1.60714  -11.44324
C      0.14854    0.06172   -6.38287
C     -0.44423   -0.50615  -10.84588
C      0.54151   -0.77264   -3.71563
C      1.58920   -0.20237   -4.46615
C      1.79506   -0.65468   -1.63382
C      0.02059    0.55351   -7.79931
C      4.01048   -0.42389   -4.30181
C      2.63943    0.37856   -2.38001
C      7.43680   -5.17107   -4.12291
C      8.56062   -4.12786   -4.09195
C      6.23150   -4.71547   -3.29122
C      0.43347   -3.42864   -1.18633
C     -0.42149   -3.46445   -2.42837
C      8.05559   -2.74764   -4.54563
C      5.71711   -3.33965   -3.74950
C     -0.12439   -2.14695   -1.74811
C      6.85579   -2.31928   -3.69905
C     -1.21551    0.42205   -9.93281
C      5.27490   -0.30737   -3.41779
N     -0.45142   -2.49437  -12.23219
N      0.78814   -1.22154   -2.39379
N      2.83366   -0.03548   -3.77145
N     -1.05002    0.09157   -8.51056
N      6.37608   -0.95776   -4.19948
O      2.01952   -0.92709   -0.46508
O      0.84314    1.34625   -8.26379
O      4.16402   -0.85270   -5.45138
H      2.63372   -1.11285  -12.16385
H     -1.90107   -0.56395   -6.06214
H      1.44357    0.52521  -10.65912
H     -1.54490   -1.30791   -3.75469
H      2.20225    0.67123   -6.34279
H      1.33959   -3.02616  -13.11243
H     -2.13768   -1.77899  -11.28276
H      2.12621    1.34667   -2.37037
H      3.57650    0.49183   -1.84200
H      7.80830   -6.12914   -3.74728
H      7.12235   -5.34063   -5.16067
H      8.96560   -4.04858   -3.07521
H      9.38987   -4.43269   -4.73653
H      5.41569   -5.44026   -3.36617
H      6.51016   -4.66553   -2.23087
H      0.01969   -3.77406   -0.24508
H      1.49903   -3.59428   -1.29954
H      0.07041   -3.65652   -3.37689
H     -1.43684   -3.84218   -2.35953
H      8.86171   -2.00667   -4.46933
H      7.75301   -2.79820   -5.60004
H      5.33792   -3.40675   -4.77601
H      4.87940   -3.02752   -3.11612
H     -0.92233   -1.66189   -1.19172
H      7.17071   -2.15230   -2.66332
H     -0.88440    1.45354  -10.05962
H     -2.28449    0.37872  -10.15827
H      5.17521   -0.81384   -2.45875
H      5.53157    0.73860   -3.23845
H     -1.51633   -0.74439   -8.18259
H      7.18210   -0.33170   -4.28308
H      5.95341   -1.07459   -5.15194
