56

C      0.15801    2.58402    2.31414
C      0.08090    2.42530    0.90625
C      0.22545    1.50151    3.19473
C      0.13654    0.06450    1.23264
C      0.07340    1.15078    0.35235
C      0.10578   -1.32826    0.91627
C      0.20701    0.21804    2.62970
C      0.14713   -2.00477    2.11715
C     -0.05090   -1.75463   -0.52220
C     -0.41462    1.77068   -2.12981
C     -0.04095   -0.25507   -3.62757
C      0.06649    0.74366   -1.10945
C     -0.08305    1.28369   -3.56565
C     -0.75288   -0.57428   -1.22170
C     -3.11023   -4.14314   -2.72988
C     -0.42919   -5.58000    1.53159
C      2.85056    3.98507   -4.82176
C      0.14365   -3.47108    2.42143
C      1.25730    1.82853   -4.08136
C     -2.76958   -2.69261   -2.36622
C     -1.47479   -2.25533   -3.04773
N      0.22222   -1.06870    3.15162
N     -1.09453   -0.83049   -2.71044
O     -0.44119   -4.16787    1.33192
S      1.10709    3.61969   -4.42752
H      0.16520    3.58992    2.72354
H      0.03380    3.31267    0.28149
H      0.28269    1.66367    4.26749
H      0.92246   -1.94428   -0.99569
H     -0.62619   -2.67735   -0.57107
H     -1.49030    1.95031   -2.00841
H      0.06929    2.73519   -1.96537
H     -0.24303   -0.61689   -4.63695
H      0.91758   -0.66566   -3.30560
H      1.10791    0.49512   -1.35834
H     -0.86903    1.62350   -4.25098
H     -1.72557   -0.41922   -0.74839
H     -3.22371   -4.27113   -3.81110
H     -2.32930   -4.82882   -2.38568
H     -4.04897   -4.44209   -2.25757
H     -0.89305   -6.03059    0.65221
H     -1.00492   -5.85894    2.42458
H      0.59699   -5.95862    1.63435
H      2.90352    5.05021   -5.05637
H      3.18521    3.41595   -5.69270
H      3.49858    3.77936   -3.96586
H      1.17214   -3.83108    2.59155
H     -0.42299   -3.66263    3.34772
H      1.55251    1.30812   -4.99988
H      2.04159    1.66408   -3.33200
H     -2.68607   -2.59910   -1.28016
H     -3.58588   -2.03074   -2.68421
H     -0.62921   -2.88915   -2.78016
H     -1.59139   -2.29007   -4.13396
H      0.24327   -1.30148    4.13555
H     -1.93818   -0.27650   -2.88491
