61

C     -3.72777    1.68176    7.04142
C     -4.72122    1.94316    7.99079
C     -2.20057    6.53964    2.51887
C     -1.73083    5.34494    1.98380
C     -3.96046    1.95014    5.68986
C     -5.95026    2.47276    7.58713
C     -3.41164    6.57061    3.24959
C     -2.50628    4.19545    2.21377
C      0.49200    0.63872   -0.10191
C     -5.18235    2.48391    5.26090
C     -6.15016    2.72739    6.23539
C     -2.47630    2.78869    1.91574
C      0.55308    2.01491    0.03566
C     -3.69990    4.36735    2.96126
C     -0.67891    0.05223    0.44249
C     -1.46197    2.02197    1.18512
C      0.45684   -1.70688   -0.51076
C      1.69893    2.84826   -0.49319
C      1.34103   -0.45321   -0.72888
C      2.67029   -0.68904    0.02166
C      1.58161   -0.26413   -2.23796
C      1.96931    4.86538    2.67833
C     -5.47872    2.78173    3.80284
C      2.45249    5.14538   -0.90199
C      3.31823    5.51211    0.30569
N     -4.17858    5.50144    3.48304
N     -3.54920    2.17974    2.43290
N     -0.42448    2.70296    0.68146
N     -1.64522    0.68295    1.08016
N     -4.28928    3.12838    3.04650
N     -0.67400   -1.30968    0.20289
N      1.42491    4.17170   -0.58396
O      0.69163   -2.84395   -0.87180
O      2.78912    2.35516   -0.80250
O      0.95694    6.68758    0.96360
F     -7.35139    3.23851    5.84362
S      2.28996    6.33447    1.62942
H     -2.77265    1.26797    7.35242
H     -4.54418    1.73706    9.04273
H     -1.63615    7.45464    2.36913
H     -0.80659    5.33265    1.42223
H     -3.18978    1.74203    4.95388
H     -6.74400    2.68991    8.29539
H     -3.77177    7.51209    3.66087
H      3.14533   -1.59402   -0.36731
H      2.49812   -0.82485    1.09466
H      3.32542    0.16941   -0.12620
H      2.03369   -1.17177   -2.64710
H      2.25311    0.58030   -2.39967
H      0.64196   -0.07846   -2.76824
H      1.32453    5.20505    3.49189
H      2.91669    4.49848    3.08312
H      1.45946    4.09156    2.10378
H     -5.92740    1.91402    3.31248
H     -6.17518    3.61782    3.72675
H      3.10114    4.73289   -1.67855
H      1.95820    6.03808   -1.28714
H      4.07892    6.24283    0.01516
H      3.81280    4.63498    0.72931
H     -1.41954   -1.93852    0.48087
H      0.54460    4.50408   -0.20414
