16   
Generated by ForceBalance from scan.xyz: Frame 1 of 24
C        4.6654306523    1.4398199666    0.8280140418
C        5.6038442563    0.6477496322    0.1876799998
C        3.5642538026   -0.1396302995   -0.1278822262
C        2.5203866104   -1.0671255903   -0.6256080833
C        0.1280282684   -1.6169685238   -0.4057781519
N        3.4010417461    0.9405612424    0.6262605797
N        4.8808077657   -0.3536262080   -0.4158740341
N        1.2525302983   -0.6999671516   -0.2975389018
O        2.8309430812   -2.0772782015   -1.2685952283
H        4.8384806278    2.3311159204    1.4171385937
H        6.6802103672    0.7119795436    0.1170430037
H       -0.0632372018   -2.1320670661    0.5439559452
H        0.3637706158   -2.3615286434   -1.1667024087
H       -0.7723380755   -1.0723949338   -0.7038942006
H        5.2121918918   -1.1340777576   -0.9712722995
H        1.1789878189    0.1061654371    0.3147725192
16   
Generated by ForceBalance from scan.xyz: Frame 2 of 24
C        4.6116254325    1.3995103531    0.8574232123
C        5.5674083031    0.5999288222    0.2524130474
C        3.5328178101   -0.1436907752   -0.1810444853
C        2.4984928539   -1.0472380550   -0.7373036265
C        0.1506723714   -1.6501253576   -0.3457148531
N        3.3511278876    0.9275299995    0.5823912085
N        4.8589266724   -0.3763925403   -0.4057834013
N        1.2142774530   -0.6587949267   -0.4771714847
O        2.8236805502   -2.0766862324   -1.3386101768
H        4.7702693368    2.2767394117    1.4711824670
H        6.6471241044    0.6430590549    0.2413348380
H        0.1487844213   -2.1077841866    0.6518714553
H        0.3055507475   -2.4316651703   -1.0901122243
H       -0.8176726003   -1.1761036773   -0.5248719017
H        5.2056381616   -1.1561657484   -0.9527139616
H        1.1561668227    0.1540830548    0.1302930402
16   
Generated by ForceBalance from scan.xyz: Frame 3 of 24
C        4.5673886430    1.3549439869    0.8974822235
C        5.5387268780    0.5630561181    0.3062473878
C        3.5157441364   -0.1349792253   -0.2425028005
C        2.4933675313   -1.0042038203   -0.8688085508
C        0.2050540184   -1.6330642731   -0.2679070007
N        3.3149423568    0.9119120653    0.5503001636
N        4.8481360655   -0.3772472194   -0.4185521089
N        1.1931450447   -0.6174107294   -0.6416849410
O        2.8307582238   -2.0307317450   -1.4651187336
H        4.7102561247    2.2065575555    1.5499397053
H        6.6183440777    0.5892534700    0.3467813353
H        0.3291908833   -1.9479123800    0.7762139372
H        0.3267019786   -2.5008963706   -0.9169347382
H       -0.8016866129   -1.2306753941   -0.4047970736
H        5.2095389581   -1.1439596089   -0.9743932796
H        1.1606799034    0.2195572836   -0.0630586469
16   
Generated by ForceBalance from scan.xyz: Frame 4 of 24
C        4.5018818116    1.2960946097    0.9394875793
C        5.4917889786    0.5163325142    0.3618048238
C        3.4886275141   -0.1414999771   -0.2996375967
C        2.4857686765   -0.9772823161   -0.9967182994
C        0.2751788928   -1.6092450426   -0.1788757222
N        3.2630167208    0.8789861538    0.5215713930
N        4.8265649588   -0.3884598979   -0.4274699902
N        1.1655432359   -0.6103287430   -0.7911655052
O        2.8413185911   -1.9873809989   -1.6062602991
H        4.6233056124    2.1213160416    1.6291364145
H        6.5686861292    0.5291132871    0.4522464013
H        0.5127558069   -1.7635086526    0.8816527508
H        0.3811975574   -2.5556475101   -0.7109029066
H       -0.7606595042   -1.2734625455   -0.2702289818
H        5.2068091721   -1.1374838477   -0.9947454588
H        1.1416500423    0.2641391441   -0.2681253021
16   
Generated by ForceBalance from scan.xyz: Frame 5 of 24
C        4.4277168507    1.2379603040    0.9863381962
C        5.4392207683    0.4714019314    0.4271725346
C        3.4633835434   -0.1556444709   -0.3393145949
C        2.4855276788   -0.9612823744   -1.1022392201
C        0.3717344756   -1.5620983777   -0.0702595658
N        3.2070169829    0.8401357829    0.5039891749
N        4.8060120469   -0.4042639754   -0.4177252328
N        1.1420861688   -0.6247870599   -0.9135129845
O        2.8640668256   -1.9432342436   -1.7382843302
H        4.5226857704    2.0407815041    1.7059159225
H        6.5112733193    0.4760788136    0.5645999973
H        0.7433924217   -1.5821193397    0.9627636678
H        0.4353553784   -2.5653110918   -0.4954047757
H       -0.6764860706   -1.2539511809   -0.0687253071
H        5.2093628692   -1.1340730902   -0.9940150252
H        1.1135598984    0.2946816318   -0.4720763781
16   
Generated by ForceBalance from scan.xyz: Frame 6 of 24
C        4.3430920026    1.1695626315    1.0456474336
C        5.3749976568    0.4286268823    0.4877415942
C        3.4259088793   -0.1712344857   -0.3658813229
C        2.4736663192   -0.9415565503   -1.1935837430
C        0.4679236034   -1.4788583381    0.0388001149
N        3.1404073307    0.7895532617    0.5090320148
N        4.7723912890   -0.4143574975   -0.4097131385
N        1.1054025397   -0.6466321056   -1.0102591028
O        2.8775751639   -1.8720788552   -1.8832204917
H        4.4127327753    1.9432730111    1.7992286557
H        6.4423021989    0.4312951144    0.6585594853
H        0.9360849077   -1.3396306047    1.0223520355
H        0.5309480390   -2.5311115835   -0.2469908565
H       -0.5875756137   -1.2038504488    0.1021408079
H        5.1985641976   -1.1157840981   -1.0045109388
H        1.0553409085    0.3164733894   -0.6737056529
16   
Generated by ForceBalance from scan.xyz: Frame 7 of 24
C        4.4149868471    0.9105981030    1.3388655947
C        5.4211005360    0.3756248950    0.5471094538
C        3.4246007696   -0.1756487268   -0.2300886996
C        2.4726613591   -0.8213663193   -1.1562372244
C        0.4056619552   -1.1187041921    0.1543879348
N        3.1835561905    0.5603898015    0.8505446787
N        4.7716045509   -0.3210850135   -0.4381371243
N        1.1217941148   -0.5103875228   -0.9873101727
O        2.9016488226   -1.4253790808   -2.1437066529
H        4.5224186736    1.5259834286    2.2229349169
H        6.4985876237    0.4406471167    0.6007306894
H       -0.6198109493   -0.7414790076    0.1622986812
H        0.8877314123   -0.8155053982    1.0850493233
H        0.3857173164   -2.2143398441    0.0912473289
H        5.1655378906   -0.8332863064   -1.2190366646
H        0.6702646742   -0.8054184803   -1.8533699241
16   
Generated by ForceBalance from scan.xyz: Frame 8 of 24
C        4.3786506332    0.8292074471    1.3813194016
C        5.3959346506    0.3752610540    0.5555022804
C        3.4144712952   -0.2079423300   -0.2380136174
C        2.4910308338   -0.8303686995   -1.2137156152
C        0.4421902233   -1.0439909985    0.1878465900
N        3.1560932271    0.4606647554    0.8817852038
N        4.7631822333   -0.2883234008   -0.4633339031
N        1.1342194871   -0.6189127772   -1.0433193194
O        2.9597015292   -1.3519748912   -2.2322972222
H        4.4703170121    1.3975668977    2.2979788302
H        6.4709574986    0.4725601146    0.6079501665
H       -0.5908324442   -0.6903858411    0.1434724156
H        0.9268725553   -0.5892969260    1.0512831316
H        0.4413425558   -2.1359575119    0.2983613329
H        5.1651106754   -0.7403112939   -1.2768761234
H        0.6684854329   -0.9889431282   -1.8702859030
16   
Generated by ForceBalance from scan.xyz: Frame 9 of 24
C        4.3607861681    0.7534658298    1.4131402116
C        5.3770858739    0.3772272112    0.5490082785
C        3.4021081647   -0.2334519476   -0.2424484381
C        2.4981941600   -0.8352007894   -1.2531718514
C        0.4498076574   -0.9793980505    0.1994073506
N        3.1422222861    0.3690005091    0.9144648258
N        4.7482589392   -0.2527201341   -0.4930545948
N        1.1394178203   -0.7344811710   -1.0759960362
O        2.9946253168   -1.2849686844   -2.2951753669
H        4.4490659253    1.2754921562    2.3572350546
H        6.4494542483    0.5037945754    0.5914829297
H       -0.5911184908   -0.6634501074    0.0942281830
H        0.9185278362   -0.3919792001    0.9868163976
H        0.4721630943   -2.0416365430    0.4748846410
H        5.1468812792   -0.6488257401   -1.3370269163
H        0.6758614089   -1.1618059021   -1.8741641195
16   
Generated by ForceBalance from scan.xyz: Frame 10 of 24
C        4.3042547607    0.7219018452    1.5993090565
C        5.3372607061    0.4706399641    0.7106217548
C        3.4028117638   -0.2234970540   -0.1128718983
C        2.5474154898   -0.8306680021   -1.1639207210
C        0.4654853780   -0.9672063786    0.2745037582
N        3.1109723998    0.2864211894    1.0808113723
N        4.7450372196   -0.1326457452   -0.3677421262
N        1.1918277432   -0.8754871931   -0.9957092436
O        3.0879523166   -1.2016618733   -2.2170256767
H        4.3631300623    1.1876466998    2.5746098641
H        6.3993230833    0.6640922954    0.7593788483
H       -0.5911152311   -0.7683690363    0.0785606067
H        0.8468345658   -0.2261532315    0.9736997667
H        0.5607050164   -1.9627639283    0.7264667324
H        5.1622334766   -0.4545217778   -1.2341961886
H        0.7603161319   -1.3483145898   -1.7842706159
16   
Generated by ForceBalance from scan.xyz: Frame 11 of 24
C        4.3091098961    0.5753923452    1.5917927958
C        5.3313657907    0.4116531649    0.6709065182
C        3.4017443767   -0.2825748823   -0.1613827128
C        2.5418355512   -0.8600981386   -1.2231993084
C        0.4767807510   -0.8764808711    0.2594728242
N        3.1176389346    0.1410783342    1.0671775661
N        4.7350493530   -0.1363678334   -0.4347155611
N        1.2023442365   -0.9734983090   -1.0086021384
O        3.0670459674   -1.1846480496   -2.3000349792
H        4.3745084473    0.9786454602    2.5941914663
H        6.3886152131    0.6312254559    0.7139152731
H       -0.5800091235   -1.0557141159    0.0498871404
H        0.5929500306    0.1136924613    0.6999941555
H        0.8267813928   -1.6144487893    0.9881166173
H        5.1456242616   -0.3997902072   -1.3237837909
H        0.7356141918   -1.4302449691   -1.7837179275
16   
Generated by ForceBalance from scan.xyz: Frame 12 of 24
C        3.9102367156    1.7571726100   -0.2165039588
C        5.1001399744    1.0478049623   -0.2385711635
C        3.3672671722   -0.3236144213   -0.1177485131
C        2.7333680918   -1.6627099117   -0.0436333689
C        0.3845748232   -0.6809812863    0.0196240369
N        2.8420762932    0.8983295575   -0.1424453413
N        4.7337645642   -0.2713765233   -0.1734163354
N        1.3789211714   -1.7538260841    0.0162170366
O        3.4644385847   -2.6663854387   -0.0382982858
H        3.7743762307    2.8305294606   -0.2507358050
H        6.1322300626    1.3637911014   -0.2912535227
H        0.4510339933   -0.0714379848   -0.8840231727
H        0.5107748592   -0.0205217328    0.8805061248
H       -0.6024405238   -1.1461740665    0.0666077418
H        5.3155433085   -1.1019829238   -0.1670941466
H        1.0569279738   -2.7127713165    0.0669978882
16   
Generated by ForceBalance from scan.xyz: Frame 13 of 24
C        3.9409931285    1.7212991984   -0.1422541655
C        5.1175813784    0.9955217456   -0.2357210638
C        3.3693197016   -0.3530214487   -0.0837026619
C        2.7175426832   -1.6840750044   -0.0211438121
C        0.3754098216   -0.6954244846   -0.0164545048
N        2.8632178669    0.8767227950   -0.0498223003
N        4.7329122929   -0.3193910544   -0.1989141576
N        1.3685547210   -1.7590577660    0.1454599568
O        3.4322217122   -2.6972943021   -0.0792289837
H        3.8210212676    2.7970716997   -0.1386137611
H        6.1514767963    1.2977716245   -0.3225731968
H        0.3968170262   -0.2660357515   -1.0230256249
H        0.5473175897    0.1100353773    0.6974640545
H       -0.6090929613   -1.1325497643    0.1639096388
H        5.3018137107   -1.1580302189   -0.2368727647
H        1.0399207278   -2.7174488390    0.1181657850
16   
Generated by ForceBalance from scan.xyz: Frame 14 of 24
C        3.9599612399    1.7845990231   -0.0111860027
C        5.1234543012    1.0555237074   -0.1975510188
C        3.3683979441   -0.2858345015   -0.0472331325
C        2.7130494995   -1.6179850676   -0.0163193848
C        0.3450923452   -0.7192097683   -0.1007155384
N        2.8787179534    0.9447982568    0.0785556324
N        4.7262067154   -0.2556555689   -0.2210902511
N        1.3723435648   -1.7108153977    0.2323007071
O        3.4282675111   -2.6253269604   -0.1284442704
H        3.8514707049    2.8592026306    0.0598991480
H        6.1559414256    1.3535651263   -0.3112133594
H        0.1487939042   -0.6837128715   -1.1799184878
H        0.6610067913    0.2673719499    0.2314236862
H       -0.5769060613   -0.9960579712    0.4165937095
H        5.2855508526   -1.0955872589   -0.3213316576
H        1.0778268722   -2.6817528552    0.1860688146
16   
Generated by ForceBalance from scan.xyz: Frame 15 of 24
C        4.0661065260    1.6380094904    0.0667542604
C        5.1857892827    0.8794782884   -0.2367022268
C        3.3986200681   -0.4070746620   -0.0115842507
C        2.6878935203   -1.7087691920    0.0228085659
C        0.3469620069   -0.7945881056   -0.0819572245
N        2.9646907740    0.8318405525    0.2022674200
N        4.7399397740   -0.4154339070   -0.2874259748
N        1.3672086852   -1.7371086735    0.4006943326
O        3.3446422572   -2.7442738477   -0.1530256374
H        4.0032365518    2.7113267426    0.1918836496
H        6.2180321867    1.1474168281   -0.4112900965
H        0.1141668209   -0.9570800899   -1.1422123352
H        0.6970900163    0.2263852862    0.0587426052
H       -0.5626089106   -0.9409071866    0.5059919458
H        5.2630451559   -1.2671691069   -0.4577103814
H        1.0525322804   -2.7043217939    0.4070832981
16   
Generated by ForceBalance from scan.xyz: Frame 16 of 24
C        4.1042971136    1.6418452986    0.1415599170
C        5.2017553624    0.8877524523   -0.2455283065
C        3.4137098042   -0.3910059484    0.0067837105
C        2.6719813849   -1.6723779913    0.0154621286
C        0.3313850786   -0.8316014385   -0.1344140960
N        3.0020655666    0.8404568399    0.2927772561
N        4.7404712900   -0.3999600677   -0.3336206715
N        1.3741340035   -1.6632066342    0.4952469963
O        3.2839117245   -2.7194492021   -0.2262331742
H        4.0596167363    2.7090303103    0.3171147678
H        6.2289235595    1.1537128649   -0.4506684802
H        0.1128400207   -1.1589080495   -1.1589693599
H        0.6544946175    0.2089258742   -0.1438685416
H       -0.5794103280   -0.9068221816    0.4646977139
H        5.2493438426   -1.2454649175   -0.5656994736
H        1.0746022263   -2.6344315777    0.5638555828
16   
Generated by ForceBalance from scan.xyz: Frame 17 of 24
C        4.1637382801    1.6413680339    0.2203860806
C        5.2278931343    0.8845213875   -0.2487582388
C        3.4269749910   -0.3695013699    0.0306560015
C        2.6415853205   -1.6199278033    0.0085701961
C        0.2920376942   -0.8972335844   -0.1811032769
N        3.0534233586    0.8558108524    0.3865954962
N        4.7364481530   -0.3885650930   -0.3740309874
N        1.3670761105   -1.5721542964    0.5772789776
O        3.1935699550   -2.6777450009   -0.3081210872
H        4.1504526301    2.7001060524    0.4455895611
H        6.2514988430    1.1393286116   -0.4841009041
H        0.0984083267   -1.3863070060   -1.1444915535
H        0.5693765605    0.1444267070   -0.3498582879
H       -0.6206303270   -0.9146531651    0.4194711677
H        5.2190167405   -1.2294310079   -0.6696825477
H        1.1039540658   -2.5470297727    0.7234508892
16   
Generated by ForceBalance from scan.xyz: Frame 18 of 24
C        4.2583647958    1.4679706219    0.5732750234
C        5.2563356413    0.8503257846   -0.1667666337
C        3.5174039742   -0.4921148452    0.0815923411
C        2.6919503976   -1.7069009908   -0.0861416811
C        0.3781090106   -1.1502102053   -0.4895112415
N        3.1867744650    0.6263047078    0.7218840384
N        4.7684188366   -0.3953528305   -0.4657486806
N        1.3926284433   -1.6599495868    0.4644780843
O        3.0944352746   -2.6261720296   -0.7914551926
H        4.2640267939    2.4648235704    0.9947297263
H        6.2287667009    1.1893787385   -0.4950040564
H       -0.5976513714   -1.1701695922    0.0017059132
H        0.3370050971   -1.8097562564   -1.3590975607
H        0.5944210792   -0.1253261849   -0.8193683374
H        5.2062871761   -1.1348356184   -1.0031864299
H        1.4254233888   -0.9838726812    1.2295400448
16   
Generated by ForceBalance from scan.xyz: Frame 19 of 24
C        4.3606314314    1.4629912251    0.6307877578
C        5.3354214509    0.8269242230   -0.1232428944
C        3.5422658791   -0.4492586257    0.0787943018
C        2.6676302958   -1.6222940765   -0.1362310782
C        0.2903660875   -1.2870676967   -0.4988255716
N        3.2537513607    0.6618970152    0.7500659945
N        4.7983992854   -0.3898675034   -0.4589268694
N        1.3979123815   -1.5481367569    0.4438648515
O        3.0217989579   -2.5191507492   -0.8992168498
H        4.4046879355    2.4461957621    1.0810236199
H        6.3222685619    1.1349706644   -0.4385786961
H       -0.6574309201   -1.3664550049    0.0389918304
H        0.3032003602   -2.0419779574   -1.2869816261
H        0.3663422361   -0.2894879871   -0.9511850951
H        5.2038274344   -1.1289005438   -1.0218472588
H        1.4161851966   -0.7921643586    1.1289066241
16   
Generated by ForceBalance from scan.xyz: Frame 20 of 24
C        4.4544172224    1.4615012479    0.6873159795
C        5.4095084111    0.8059180075   -0.0740961838
C        3.5588614572   -0.3933005763    0.0661873107
C        2.6385534008   -1.5219851524   -0.1969331729
C        0.2184028152   -1.4085052985   -0.4846879995
N        3.3101577818    0.7081580707    0.7673520693
N        4.8220887511   -0.3747890546   -0.4547769099
N        1.3930544572   -1.4204435686    0.4016557837
O        2.9584045852   -2.4055202281   -0.9939983931
H        4.5361299089    2.4275467656    1.1683836622
H        6.4133495705    1.0781700964   -0.3677570120
H       -0.6872834351   -1.5081087026    0.1183699891
H        0.2761387829   -2.2575543112   -1.1671450282
H        0.1633847270   -0.4805161797   -1.0685433084
H        5.2002904788   -1.1146395094   -1.0352968321
H        1.3868926991   -0.6103721673    1.0201934696
16   
Generated by ForceBalance from scan.xyz: Frame 21 of 24
C        4.5464311753    1.4584950145    0.7329266077
C        5.4850638269    0.7751728132   -0.0234516271
C        3.5787189935   -0.3391786282    0.0555814447
C        2.6168882594   -1.4239439634   -0.2466232848
C        0.1779547902   -1.5193015423   -0.4403708387
N        3.3652335027    0.7592728965    0.7715859721
N        4.8501249613   -0.3686456959   -0.4418332616
N        1.3871688977   -1.2835192368    0.3528263517
O        2.9158882825   -2.3155145018   -1.0460615040
H        4.6631476663    2.4089511577    1.2372882227
H        6.5069355708    1.0045971523   -0.2899862919
H       -0.6722778751   -1.6835152886    0.2263867943
H        0.3237799161   -2.4126395373   -1.0484889977
H       -0.0395465402   -0.6693764294   -1.0998918703
H        5.2042923375   -1.1145457075   -1.0297186820
H        1.3516745568   -0.4342459588    0.9129772457
16   
Generated by ForceBalance from scan.xyz: Frame 22 of 24
C        4.6050200018    1.4474281507    0.7755255785
C        5.5324167016    0.7464625056    0.0222019650
C        3.5789440895   -0.2850533462    0.0216397674
C        2.5814238170   -1.3211761866   -0.3347760184
C        0.1435242750   -1.6051597327   -0.4145159384
N        3.3941968310    0.7985632198    0.7665843075
N        4.8588290393   -0.3553001536   -0.4476437733
N        1.3594452035   -1.1499007479    0.2528630807
O        2.8682704754   -2.2177564014   -1.1353674784
H        4.7496454835    2.3763114251    1.3118551041
H        6.5704890352    0.9368023606   -0.2100667375
H       -0.6456216421   -1.7637068823    0.3249283519
H        0.3530033667   -2.5498569114   -0.9170327736
H       -0.2020090758   -0.8771486554   -1.1596142574
H        5.1949716414   -1.0995917053   -1.0480010383
H        1.2890754683   -0.2891271254    0.7888703323
16   
Generated by ForceBalance from scan.xyz: Frame 23 of 24
C        4.6634705648    1.4503198437    0.8162901942
C        5.5839563029    0.7215610817    0.0816638541
C        3.5862302165   -0.2160244291   -0.0101183987
C        2.5589684821   -1.2046151996   -0.4162629104
C        0.1295116045   -1.6210881456   -0.3903093027
N        3.4245563664    0.8591698722    0.7514281279
N        4.8769785880   -0.3377929623   -0.4357653107
N        1.3297854836   -0.9761973922    0.1197425261
O        2.8458580249   -2.1300287927   -1.1854193833
H        4.8318436105    2.3595670583    1.3787214389
H        6.6381722923    0.8652778024   -0.1071481717
H       -0.5523738389   -1.8521965640    0.4330994651
H        0.4220863181   -2.5489063243   -0.8826962455
H       -0.3901032412   -0.9842665688   -1.1170661352
H        5.1994672593   -1.0879617019   -1.0363137462
H        1.2468507210   -0.1179283962    0.6553447139
16   
Generated by ForceBalance from scan.xyz: Frame 24 of 24
C        4.7043109375    1.4780367168    0.8279357448
C        5.6347850291    0.7096342523    0.1486853065
C        3.6125630112   -0.1597916839   -0.0365649771
C        2.5772745349   -1.1271281501   -0.4737943353
C        0.1623802115   -1.6381798430   -0.3476452485
N        3.4504229985    0.9281927302    0.7062440058
N        4.9177723984   -0.3296336139   -0.3956105609
N        1.3274207344   -0.8274423878   -0.0380496202
O        2.8820921235   -2.1023546613   -1.1722425108
H        4.8755432165    2.3870773566    1.3898704257
H        6.7018974853    0.8136051130    0.0141574321
H       -0.2991229773   -2.0254729109    0.5675136829
H        0.4891174915   -2.4769251076   -0.9630889900
H       -0.5823375764   -1.0569039756   -0.9025913745
H        5.2452450492   -1.1032632676   -0.9627464166
H        1.2388657840    0.0094237428    0.5281557096
