28   

C       -3.3212230338    4.3776579098    2.2440580359
C       -3.7908049214    3.1657866479    2.7564613390
C       -2.3297546806    4.3765831072    1.2594875656
C       -3.2716636886    1.9556704612    2.2822735857
C       -1.8014996224    3.1654150211    0.7970583567
C       -2.2641114281    1.9396938590    1.3025335613
C       -0.5315446173    0.3972595081    0.1308222595
C        0.5573817688   -0.2157920744    0.8483127674
C       -0.5199770938    0.0341626088   -1.3278069225
C       -1.7052720252    0.6891145939    0.8350892389
C        1.9106458978   -0.2953881626   -1.1914177290
C        0.6750140302   -0.9307003804   -3.2781627552
N        1.6972786809   -0.6040044710    0.2010153299
N        0.6617610785   -0.3969381854   -1.9208888700
O        0.4882232049   -0.4597858651    2.0401668289
O       -1.5567466778    0.0837900740   -1.9731148964
H       -3.7248739820    5.3153268815    2.6092845828
H       -4.5554123818    3.1622691700    3.5250117274
H       -1.9689332452    5.3146461328    0.8533824987
H       -3.6447801829    1.0258008661    2.6963710138
H       -1.0342754383    3.1792130901    0.0314899833
H       -2.0813659583   -0.1577561635    1.3995956842
H        2.3197232659    0.7160958924   -1.2887877893
H        2.6372227729   -1.0023241838   -1.6058359834
H        1.5990568688   -0.6447451562   -3.7904525239
H       -0.1597416510   -0.5406989047   -3.8694097677
H        0.6062934053   -2.0228094650   -3.2509298062
H        2.3621462169   -1.1251502893    0.7595650891
28   

C       -3.4678356083    4.3768644890    2.0372551554
C       -3.8193444283    3.2242367581    2.7439552601
C       -2.5591191398    4.2914036212    0.9793245445
C       -3.2640547999    1.9888472216    2.3916080740
C       -1.9930373644    3.0573214391    0.6384419424
C       -2.3346324603    1.8905729616    1.3412385514
C       -0.5676688164    0.3065544586    0.3024639628
C        0.4446001275   -0.4936691650    0.9450962911
C       -0.5892822519    0.1153714712   -1.1833444538
C       -1.7301788891    0.6159589429    0.9992064579
C        1.7750260228   -0.5716335544   -1.1152677477
C        0.4925294154   -0.6966267562   -3.2626255513
N        1.5236148164   -0.9629099259    0.2497779539
N        0.5314924134   -0.3849774291   -1.8377236653
O        0.3651849557   -0.8155613274    2.1179143928
O       -1.5897105670    0.4136783910   -1.8197668461
H       -3.8999868108    5.3337354623    2.3077088532
H       -4.5203265870    3.2868595545    3.5685655517
H       -2.2928161231    5.1811093788    0.4202674233
H       -3.5459540640    1.1072460300    2.9561530037
H       -1.2951856836    3.0040360004   -0.1896135104
H       -2.0060274108   -0.1327635409    1.7351445395
H        2.3554266161    0.3572164502   -1.1321324406
H        2.3662882812   -1.3542959327   -1.6024333327
H        0.9291583276    0.1245080176   -3.8396316364
H       -0.5337864679   -0.8591582661   -3.6077568920
H        1.0513603303   -1.6155331873   -3.4661990394
H        2.1345525226   -1.5860105674    0.7637662341
28   

C       -3.5031307675    4.3690351223    1.9198421445
C       -3.7837660398    3.2805599786    2.7485606894
C       -2.6372114988    4.2087226360    0.8354540028
C       -3.2011164229    2.0345965116    2.4909485516
C       -2.0421461393    2.9657778295    0.5891783360
C       -2.3132450257    1.8608503860    1.4140811042
C       -0.5585533986    0.2239358846    0.4581799466
C        0.4094977691   -0.6788020391    1.0311128501
C       -0.5737900502    0.1834651367   -1.0381814923
C       -1.6809349210    0.5709532910    1.1814983987
C        1.7474914336   -0.6439279404   -1.0253803349
C        0.4882357392   -0.4717431583   -3.1820768821
N        1.4608321159   -1.1481010431    0.2949010634
N        0.5254136152   -0.3120114885   -1.7320590458
O        0.3245795218   -1.0772822668    2.1799143529
O       -1.5481785954    0.5947699214   -1.6519146794
H       -3.9569544898    5.3338855588    2.1162410087
H       -4.4510346197    3.4013724399    3.5943838303
H       -2.4261867324    5.0470688094    0.1815194707
H       -3.4289459479    1.2047122793    3.1503394192
H       -1.3781365864    2.8609051416   -0.2609446579
H       -1.9106957111   -0.1080863552    1.9966387057
H        2.3838454408    0.2445990234   -0.9510834043
H        2.2942283477   -1.4114936306   -1.5834364769
H        0.9726863641    0.3814506392   -3.6670844999
H       -0.5405155180   -0.5449926963   -3.5496872818
H        1.0027605401   -1.3918095626   -3.4767398942
H        2.0470625653   -1.8302400289    0.7603929340
28   

C       -3.5261317864    4.3227357142    1.7807089682
C       -3.7444607652    3.2834655206    2.6864610400
C       -2.6841631980    4.1195483819    0.6853865366
C       -3.1253648888    2.0437522647    2.4931879119
C       -2.0528457688    2.8834391650    0.5020558415
C       -2.2646423990    1.8228452537    1.4018539458
C       -0.5523735902    0.1162681034    0.4755546056
C        0.3819311634   -0.8572168799    0.9874860876
C       -0.5681414297    0.1771205109   -1.0189372246
C       -1.6017219237    0.5333862538    1.2552839502
C        1.7293378356   -0.7148946432   -1.0552603176
C        0.4865571237   -0.3597396575   -3.1996165402
N        1.4124053871   -1.3165339626    0.2164314058
N        0.5237986072   -0.2928361818   -1.7421651739
O        0.2987151682   -1.3106234666    2.1159545529
O       -1.5429705343    0.6177244173   -1.6109373843
H       -4.0080634242    5.2828579174    1.9268945015
H       -4.3920107631    3.4374279954    3.5421936303
H       -2.5176170992    4.9203613106   -0.0259098083
H       -3.3073544278    1.2539182065    3.2132664418
H       -1.4016575244    2.7611026110   -0.3540823580
H       -1.7828168063   -0.0868973689    2.1274838754
H        2.3885111109    0.1466793194   -0.9029799383
H        2.2615417935   -1.4495654679   -1.6688437211
H        0.9658379796    0.5255337581   -3.6290567224
H       -0.5420410703   -0.4161235340   -3.5705955466
H        1.0062962130   -1.2556701456   -3.5535175350
H        1.9862470135   -2.0350837894    0.6407279538
28   

C       -3.6686922245    4.4606406865    1.7853457152
C       -3.7723487116    3.4535315769    2.7449712444
C       -2.8789262467    4.2556388521    0.6528329272
C       -3.0938778343    2.2433259051    2.5664357738
C       -2.1880937668    3.0496181425    0.4828203088
C       -2.2890529636    2.0153855379    1.4334058598
C       -0.6164262485    0.2767703450    0.4624806051
C        0.3054999526   -0.7439456695    0.9014101906
C       -0.6535541906    0.4281227142   -1.0242559032
C       -1.5706485656    0.7515161512    1.3198164504
C        1.6364977456   -0.4762973493   -1.1349852936
C        0.3829838350    0.0161941975   -3.2443270962
N        1.3125079711   -1.1747382812    0.0844433376
N        0.4325827624    0.0046579922   -1.7853167012
O        0.2453170759   -1.2491619549    2.0092005601
O       -1.6497498385    0.8626276914   -1.5835546316
H       -4.1968803118    5.3978990859    1.9196303379
H       -4.3773345709    3.6092550124    3.6310274433
H       -2.7966580405    5.0333453129   -0.0977708301
H       -3.1897842001    1.4796145574    3.3300445774
H       -1.5717589764    2.9440294236   -0.3992764572
H       -1.6702864860    0.1718566541    2.2320831440
H        2.3001052736    0.3669482480   -0.9144666002
H        2.1654416945   -1.1629848159   -1.8044279961
H        0.9073002600    0.8955626380   -3.6311192959
H       -0.6478129082    0.0348736406   -3.6126342711
H        0.8521014518   -0.8867998854   -3.6475628091
H        1.8909127909   -1.9158695804    0.4609842435
28   

C       -3.7081390981    4.4360177089    1.7477046071
C       -3.7116527380    3.4774588375    2.7601372938
C       -2.9759122015    4.2042432347    0.5828080293
C       -2.9937160939    2.2877988295    2.6005495463
C       -2.2453424793    3.0192719353    0.4305144989
C       -2.2496747969    2.0277833295    1.4321895253
C       -0.6369354768    0.2197057124    0.4523287466
C        0.2411012005   -0.8506927193    0.8651872144
C       -0.6443921047    0.4254178471   -1.0275293286
C       -1.4954000090    0.7808751293    1.3524531878
C        1.6226114899   -0.5363030889   -1.1274080826
C        0.4353049303    0.0847605707   -3.2406069844
N        1.2424265785   -1.2867668025    0.0440427288
N        0.4510395211    0.0133681996   -1.7822306582
O        0.1599587853   -1.3835864946    1.9586419100
O       -1.6349984523    0.8604813784   -1.5952671167
H       -4.2674046901    5.3571739054    1.8667757796
H       -4.2699918725    3.6545512404    3.6724411153
H       -2.9672080231    4.9463761883   -0.2072626465
H       -3.0147075194    1.5630924533    3.4067719809
H       -1.6699310118    2.9100391449   -0.4767328625
H       -1.5371532091    0.2495089699    2.2979167654
H        2.3037874788    0.2739351357   -0.8452672633
H        2.1500878974   -1.2033220047   -1.8175861668
H        0.9889909790    0.9660416665   -3.5791129800
H       -0.5853747321    0.1432190609   -3.6320317366
H        0.8928212277   -0.8120588219   -3.6700584936
H        1.7965928536   -2.0536409125    0.4051673363
28   

C       -3.7688881093    4.4410160900    1.7723294587
C       -3.6505798145    3.5343298803    2.8238442945
C       -3.1172742876    4.1832037757    0.5664803393
C       -2.8946970195    2.3689701927    2.6616670456
C       -2.3476284559    3.0235678541    0.4105117761
C       -2.2323895424    2.0782602958    1.4507653261
C       -0.6758792316    0.2143017146    0.4516183265
C        0.1519900875   -0.9018176886    0.8483103455
C       -0.6348871279    0.4707834717   -1.0192342357
C       -1.4418727712    0.8525603615    1.3820495918
C        1.6040762509   -0.5582558287   -1.0857466935
C        0.5110972629    0.1856644929   -3.2087381718
N        1.1552397122   -1.3475140956    0.0348914998
N        0.4763870597    0.0628612935   -1.7536950107
O        0.0349657365   -1.4588361951    1.9264154659
O       -1.6121561589    0.9055781243   -1.6084626011
H       -4.3585813881    5.3428296037    1.8927582651
H       -4.1442411902    3.7324537279    3.7685527732
H       -3.2004415176    4.8867729061   -0.2540022187
H       -2.8238783998    1.6859110436    3.5007784445
H       -1.8364187442    2.9106098659   -0.5319569915
H       -1.4251990876    0.3604658464    2.3492082528
H        2.3026687096    0.2126642489   -0.7427190604
H        2.1322701256   -1.2121019821   -1.7879271223
H        1.1181128730    1.0493635199   -3.4974245176
H       -0.4911317923    0.3092989605   -3.6312235115
H        0.9382819387   -0.7173361636   -3.6561107129
H        1.6766022923   -2.1414581609    0.3862555984
28   

C       -3.8328079107    4.4480512906    1.8168550599
C       -3.5650875815    3.6196306387    2.9039644735
C       -3.2878749090    4.1413823490    0.5708986435
C       -2.7679037567    2.4828110235    2.7380849565
C       -2.4769748895    3.0109033886    0.4091996713
C       -2.2101927369    2.1404493356    1.4873272445
C       -0.6975305456    0.2311095879    0.4826879803
C        0.0858816026   -0.9159904445    0.8798720269
C       -0.5959032775    0.5240289068   -0.9781492033
C       -1.3785390157    0.9417304749    1.4277949484
C        1.6183884959   -0.5623142843   -0.9885652555
C        0.6448625026    0.2954138333   -3.1226530769
N        1.1017540710   -1.3718746404    0.0880518106
N        0.5380311461    0.1164958282   -1.6773880398
O       -0.0734485006   -1.4844267026    1.9465196067
O       -1.5594122178    0.9328627015   -1.6057757866
H       -4.4556784912    5.3269452114    1.9397939865
H       -3.9754226555    3.8558689719    3.8793025399
H       -3.4872666688    4.7843016819   -0.2788817229
H       -2.5834904791    1.8620467212    3.6077857968
H       -2.0624459957    2.8698400996   -0.5737296354
H       -1.2967854501    0.4949655119    2.4134747554
H        2.3299145081    0.1721204949   -0.5960958046
H        2.1474255411   -1.2122616333   -1.6939999450
H        1.6268938640    0.7059230981   -3.3775910342
H       -0.1069944452    0.9938315660   -3.5038270687
H        0.5130953891   -0.6643400601   -3.6320063916
H        1.5879097244   -2.1889590235    0.4368605579
28   

C       -3.8683271543    4.3962651398    1.8331819719
C       -3.2049730466    3.8327098979    2.9200419909
C       -3.7183648843    3.8269652120    0.5701152479
C       -2.3801150985    2.7184258769    2.7359996845
C       -2.8993816828    2.7055001247    0.3892548977
C       -2.1802111503    2.1379666805    1.4640320951
C       -0.7076732070    0.2076594637    0.4350667388
C       -0.0584939500   -1.0257323132    0.8292345827
C       -0.5410974475    0.5520283975   -1.0081595666
C       -1.3050384471    0.9713541738    1.3974625175
C        1.3114706810   -1.0674438352   -1.1912666966
C        0.5009980501    0.1334227839   -3.2135687099
N        0.7774881937   -1.6966799011   -0.0144872317
N        0.3340587568   -0.1897606060   -1.7997160183
O       -0.2149100535   -1.5238114419    1.9310972410
O       -1.0174796009    1.5551837077   -1.5075236074
H       -4.5067192721    5.2617643954    1.9702741949
H       -3.3283881303    4.2579524860    3.9096561538
H       -4.2505792507    4.2433528504   -0.2775795585
H       -1.8810238336    2.3102633901    3.6077216491
H       -2.9098761240    2.2810633725   -0.6000202914
H       -1.0798986591    0.6227089414    2.4001841677
H        2.2057522979   -0.4919549668   -0.9264621184
H        1.6013216691   -1.8436119087   -1.9071916934
H        1.2148795333    0.9557471758   -3.3287949377
H       -0.4533587314    0.4294903470   -3.6611233426
H        0.8681336282   -0.7368068343   -3.7663639288
H        1.1716421757   -2.5479284003    0.3670692831
28   

C       -3.9609409480    4.2912143732    1.7281763572
C       -3.2507515163    3.8344974578    2.8369931381
C       -3.7583956010    3.6886331114    0.4866284437
C       -2.3319789586    2.7892143015    2.6979943495
C       -2.8448941367    2.6359031403    0.3510273963
C       -2.0922747126    2.1753871305    1.4509623492
C       -0.5941193530    0.2612937064    0.4442298619
C        0.0025941210   -0.9920226710    0.8484124412
C       -0.3536808879    0.6293516613   -0.9810754992
C       -1.1377057581    1.0732784636    1.4022842037
C        1.2804057374   -1.2110698492   -1.2351672108
C        0.6425217851    0.1810694920   -3.1945274569
N        0.7595029700   -1.7416209253   -0.0037079871
N        0.4288610205   -0.1831753713   -1.7974871261
O       -0.1427781114   -1.4491384354    1.9693188483
O       -0.6994627054    1.7100244405   -1.4303213287
H       -4.6725749857    5.1025383420    1.8318061933
H       -3.4115787851    4.2884641405    3.8083036476
H       -4.3181323694    4.0278011525   -0.3774974015
H       -1.7983519302    2.4573366886    3.5815214266
H       -2.7798415665    2.1736452998   -0.6220617622
H       -0.8755747701    0.7688681395    2.4105403009
H        2.2780530802   -0.7947701919   -1.0557836238
H        1.3752960929   -2.0308481474   -1.9548983489
H        1.4053303225    0.9634433909   -3.2661672649
H       -0.2854146456    0.5490039612   -3.6443909364
H        0.9700568974   -0.6875116370   -3.7743449959
H        1.1129985229   -2.6008724836    0.3994103714
28   

C       -4.0350172972    4.2364297618    1.7340088300
C       -3.2644718802    3.8669978524    2.8361714934
C       -3.8237823101    3.6104643331    0.5047180046
C       -2.2802077142    2.8818861352    2.7040508797
C       -2.8453470899    2.6170113424    0.3766753855
C       -2.0423574250    2.2416202414    1.4715588177
C       -0.5770280419    0.3297687022    0.4469267067
C       -0.0283426179   -0.9419446647    0.8492699147
C       -0.2813660145    0.7185872075   -0.9620420450
C       -1.0286584283    1.1963826025    1.4095529631
C        1.1727601546   -1.2685011718   -1.2756310274
C        0.7239129027    0.2778053928   -3.1710530636
N        0.6679387610   -1.7387194431   -0.0117253215
N        0.4544955258   -0.1210469475   -1.7933069498
O       -0.1604338995   -1.3725175626    1.9820960751
O       -0.5710753240    1.8289645087   -1.3813132087
H       -4.7974472985    5.0008131840    1.8330736151
H       -3.4299473154    4.3415270806    3.7967882216
H       -4.4235824690    3.8876352155   -0.3545909617
H       -1.7000562553    2.6131040689    3.5796054611
H       -2.7479401591    2.1351559508   -0.5859489467
H       -0.7052164250    0.9321215122    2.4114477866
H        2.2296661455   -1.0037085974   -1.1596699410
H        1.1025173109   -2.0858645013   -2.0009086024
H        1.5521510230    0.9934178106   -3.1998025859
H       -0.1606614226    0.7408335061   -3.6205387676
H        0.9866506174   -0.5925863846   -3.7804781199
H        0.9990389194   -2.6010312353    0.4038722975
28   

C       -4.0936536587    4.1695508292    1.7689000751
C       -3.2626833558    3.8817964131    2.8524027495
C       -3.8764932928    3.5348583077    0.5444724595
C       -2.2144078670    2.9665762817    2.7078493256
C       -2.8354797394    2.6090888032    0.4052440095
C       -1.9805131175    2.3127023388    1.4830551351
C       -0.5511876252    0.4046177143    0.4365775974
C       -0.0494765375   -0.8768915938    0.8598740766
C       -0.1977732626    0.7804821995   -0.9624482624
C       -0.9062021502    1.3337567770    1.3879375061
C        1.0989688442   -1.3183637245   -1.2809237027
C        0.8521331909    0.3129990827   -3.1436212318
N        0.6049663540   -1.7214799740    0.0114366454
N        0.5171634764   -0.0881409861   -1.7810816837
O       -0.1758027939   -1.2683350762    2.0072946478
O       -0.4590717695    1.8974270957   -1.3855368251
H       -4.9053084496    4.8799660140    1.8780778845
H       -3.4315404479    4.3649092793    3.8081000272
H       -4.5171745752    3.7551770278   -0.3016698604
H       -1.5873929438    2.7569460097    3.5670421778
H       -2.7106578779    2.1228975954   -0.5534644035
H       -0.5098150517    1.1198460868    2.3755849454
H        2.1854478797   -1.1922180737   -1.2165271689
H        0.8899016464   -2.1212609456   -1.9955237949
H        1.7158782301    0.9857554843   -3.1356410727
H        0.0072647031    0.8247464442   -3.6161776729
H        1.0916340546   -0.5621332791   -3.7559163822
H        0.9200910262   -2.5766353268    0.4535323378
28   

C       -4.1589139961    4.1029258326    1.8555207599
C       -3.2551401545    3.8855211108    2.8974479253
C       -3.9647130091    3.4673015441    0.6270850557
C       -2.1583666963    3.0371487907    2.7087208953
C       -2.8758945575    2.6065409813    0.4451611130
C       -1.9552712106    2.3779487411    1.4824790095
C       -0.5755508761    0.4715813806    0.3902398747
C       -0.1348219397   -0.8181021041    0.8489408341
C       -0.1540982633    0.8131910850   -0.9990714067
C       -0.8344180784    1.4648461545    1.3182076623
C        1.0425190263   -1.3533846359   -1.2568353655
C        0.9807545729    0.2928725102   -3.1244736488
N        0.5011640986   -1.7072284024    0.0319985634
N        0.5693272765   -0.0849015506   -1.7763755198
O       -0.2816513215   -1.1681353942    2.0070092008
O       -0.4028525645    1.9220541296   -1.4514915578
H       -5.0077150531    4.7619101788    1.9993036359
H       -3.4054665816    4.3709839228    3.8550069952
H       -4.6578114402    3.6390064141   -0.1884535828
H       -1.4738724611    2.8785578066    3.5342584750
H       -2.7478398788    2.1233912441   -0.5162020315
H       -0.3510288242    1.3019912564    2.2763521618
H        2.1344848394   -1.3129468812   -1.1766642603
H        0.7813176098   -2.1429374654   -1.9691595280
H        1.8702963558    0.9296184009   -3.0811777837
H        0.1797858518    0.8350715686   -3.6378192978
H        1.2114268082   -0.5954564482   -3.7209701126
H        0.7868961066   -2.5552537833    0.5066977945
28   

C       -4.1906603074    4.0048397023    1.9649225087
C       -3.1979245654    3.8690849043    2.9383972637
C       -4.0404672536    3.3714417478    0.7286552106
C       -2.0566879471    3.1030343456    2.6744301137
C       -2.9063216684    2.5920064936    0.4728249344
C       -1.9011346043    2.4442260330    1.4419606516
C       -0.5181760663    0.5828847507    0.2702367871
C       -0.1452051384   -0.7115080361    0.7722527333
C        0.0133261744    0.8878462331   -1.0885083576
C       -0.7377236501    1.6154604011    1.1802476729
C        0.9676235424   -1.3986998329   -1.3317381924
C        1.2606289228    0.2993284414   -3.1310272928
N        0.4624593239   -1.6547768605   -0.0050776577
N        0.7134400074   -0.0596213760   -1.8267423752
O       -0.3097276586   -1.0115654834    1.9418158972
O       -0.1432925568    2.0101983911   -1.5491967405
H       -5.0737565306    4.6002878411    2.1674293497
H       -3.3135814823    4.3538178051    3.9011118928
H       -4.8018057915    3.4835903640   -0.0347455726
H       -1.3016755034    3.0049749275    3.4461103467
H       -2.7984860672    2.1117224687   -0.4934928775
H       -0.1572930676    1.5115680971    2.0914145828
H        2.0509363573   -1.5623351238   -1.3217089961
H        0.5194926758   -2.1206792519   -2.0221891975
H        2.1995227684    0.8484058998   -3.0067451149
H        0.5552382150    0.9219155212   -3.6913732543
H        1.4533930932   -0.5973458084   -3.7285735765
H        0.7324697252   -2.4845103508    0.5095072240
28   

C       -4.2207353377    3.2361097827    2.4829128596
C       -3.0656235396    3.3586965842    3.2590545752
C       -4.1703392027    2.5466673685    1.2686177809
C       -1.8622278791    2.7954057889    2.8193995401
C       -2.9689987481    1.9713370681    0.8378169637
C       -1.8000304753    2.0868046469    1.6072385305
C       -0.2945359970    0.4932011980    0.2095163405
C        0.0590801041   -0.8266371618    0.6666403245
C        0.3055234472    0.8056354534   -1.1339461989
C       -0.5629857322    1.4765270594    1.1682981049
C        0.3262969022   -1.5972663925   -1.6423170712
C        1.4602613036    0.0189651665   -3.1869341478
N        0.4179197139   -1.8050827767   -0.2181961300
N        0.6958795647   -0.2342916514   -1.9708300758
O        0.1035425522   -1.1086197414    1.8512524380
O        0.4836060595    1.9690984898   -1.4631672637
H       -5.1526757419    3.6744252347    2.8219023598
H       -3.1018193100    3.8872188283    4.2049170343
H       -5.0625408399    2.4568221569    0.6595373251
H       -0.9779774417    2.8961145697    3.4385153499
H       -2.9436360948    1.4409654949   -0.1071615529
H        0.2143847049    1.5547964812    1.9212005469
H        1.0023837589   -2.2943131029   -2.1486870027
H       -0.6952090766   -1.8000764094   -1.9819155571
H        2.5281935515   -0.1227440197   -2.9928860037
H        1.3030894658    1.0380899341   -3.5544582434
H        1.1485214803   -0.6662565647   -3.9814891206
H        0.7554710881   -2.6663560011    0.1939726267
