24   
Generated by ForceBalance from scan.xyz: Frame 1 of 7
C        0.1554254128    0.4078071752   -2.3776712830
C        0.0873940737   -0.8279473232   -1.6765907059
C       -1.0748507278    1.0040506606   -2.5266297930
C       -1.1525545705   -3.5854119289   -0.3559811303
C       -1.6556469915   -2.3051569892   -0.5712239068
C       -1.2074668815   -1.1584981966   -1.3067612781
C       -2.1605589453   -4.2145280536    0.5252518508
C        1.2842367056   -3.8149447334    0.1545777241
C       -2.0465713514   -5.5197485693    1.2435948854
C        0.1567986800   -4.1699326673   -0.7997174659
N       -2.9644724674   -3.2600964046    0.9493874385
O        2.1150048174   -2.9476105333   -0.0339790002
O       -2.9749665129   -2.3885896862   -0.2022743046
O        1.2571152096   -4.5656896991    1.2871325897
S       -2.3424156221    0.0765139353   -1.8056189707
H        1.0779974365    0.8429817021   -2.7469890232
H        0.9533143605   -1.4250755978   -1.4126596660
H       -1.3065004520    1.9415706593   -3.0165371711
H       -1.0471244936   -5.6627335653    1.6635885360
H       -2.7943606360   -5.5711102561    2.0378611509
H       -2.2364590088   -6.3423960102    0.5438915126
H        0.4386364928   -3.7954553244   -1.7868206775
H        0.0712520691   -5.2593125001   -0.8496080618
H        1.9787914508   -4.2354800496    1.8571101154
24   
Generated by ForceBalance from scan.xyz: Frame 2 of 7
C        0.1497616208    0.3869242210   -2.3867365189
C        0.0784566816   -0.8302525611   -1.6513148099
C       -1.0788333722    0.9789899121   -2.5553298134
C       -1.1513980013   -3.5541264238   -0.2973077150
C       -1.6653933894   -2.2885224372   -0.5173471317
C       -1.2153609112   -1.1490948907   -1.2752024741
C       -2.1423958656   -4.1866345307    0.5496738456
C        1.2933293106   -3.8018119785    0.1605652719
C       -2.0527321041   -5.5222376433    1.2180263122
C        0.1455729467   -4.1408908462   -0.7747119900
N       -3.0464798579   -3.3028988228    0.9250942401
O        2.1335255626   -2.9461007860   -0.0379583954
O       -2.9551034309   -2.2934564412   -0.0738173498
O        1.2732756401   -4.5568801033    1.2897967525
S       -2.3487751019    0.0699013554   -1.8140582908
H        1.0739535823    0.8107627393   -2.7650266086
H        0.9446514790   -1.4190209027   -1.3702132570
H       -1.3094309760    1.9037462833   -3.0693265033
H       -1.0828510109   -5.6599573440    1.7037887527
H       -2.8509086595   -5.6225282209    1.9563256275
H       -2.1722629965   -6.3201286337    0.4758875743
H        0.4072205349   -3.7612216895   -1.7647531446
H        0.0526360508   -5.2292953845   -0.8298671509
H        2.0092025174   -4.2408157042    1.8494829179
24   
Generated by ForceBalance from scan.xyz: Frame 3 of 7
C        0.1211656577    0.3819965406   -2.3637087468
C        0.0512319696   -0.8113313823   -1.5883862029
C       -1.1127233913    0.9419356791   -2.5896555569
C       -1.1736759455   -3.5313645683   -0.2368344734
C       -1.6964918728   -2.2779289540   -0.4678771892
C       -1.2455651701   -1.1436538875   -1.2401155360
C       -2.1550123925   -4.1649060521    0.5974868820
C        1.2694009215   -3.8005578925    0.2020085519
C       -2.0868193475   -5.5243796618    1.2208028880
C        0.1166162701   -4.1162016064   -0.7348382279
N       -3.1323768475   -3.3368685465    0.9052031381
O        2.1085669982   -2.9402326629    0.0200304554
O       -2.9465733993   -2.2198451000    0.0617554692
O        1.2542748626   -4.5834089370    1.3121240742
S       -2.3864139856    0.0287353271   -1.8592985321
H        1.0481494142    0.8125224010   -2.7273659070
H        0.9195422791   -1.3740222360   -1.2633008654
H       -1.3459178307    1.8455876196   -3.1387840062
H       -1.1659198247   -5.6434377557    1.7984275188
H       -2.9485530769   -5.6799404910    1.8727345426
H       -2.0963765328   -6.2992502832    0.4459498089
H        0.3723140250   -3.7129339020   -1.7166780862
H        0.0196006314   -5.2026727807   -0.8148172406
H        1.9940559053   -4.2826972486    1.8751860132
24   
Generated by ForceBalance from scan.xyz: Frame 4 of 7
C        0.1128244470    0.3804142538   -2.3668175505
C        0.0480558546   -0.8032528022   -1.5762385004
C       -1.1231579574    0.9345920571   -2.5960963977
C       -1.1696190312   -3.5133714708   -0.1983298668
C       -1.6987946500   -2.2674899481   -0.4455416547
C       -1.2464298665   -1.1338541380   -1.2193288073
C       -2.1497818112   -4.1470340144    0.6317823830
C        1.2742623171   -3.7902613040    0.2191951201
C       -2.1051850015   -5.5276242048    1.2088592256
C        0.1135191453   -4.1045640252   -0.7078740191
N       -3.1826096992   -3.3612704009    0.8534458810
O        2.1179239059   -2.9361505598    0.0288770513
O       -2.9034486594   -2.1633333939    0.1713627899
O        1.2599462748   -4.5678825663    1.3328303839
S       -2.3922486541    0.0261521443   -1.8528568605
H        1.0377276913    0.8089599127   -2.7380369147
H        0.9184256151   -1.3608241594   -1.2477564709
H       -1.3596120901    1.8326611219   -3.1529676643
H       -1.2228287522   -5.6501578168    1.8434668898
H       -3.0036349203   -5.7160122434    1.7995883373
H       -2.0483974830   -6.2784424615    0.4129154531
H        0.3600537400   -3.7009111858   -1.6916620638
H        0.0147176983   -5.1909753655   -0.7872254067
H        2.0049218141   -4.2698475134    1.8903857124
24   
Generated by ForceBalance from scan.xyz: Frame 5 of 7
C        0.1049712910    0.3640623405   -2.3905069527
C        0.0488904196   -0.8179477565   -1.5976853298
C       -1.1318924100    0.9290102875   -2.5899502450
C       -1.1580467557   -3.5127537466   -0.1741930614
C       -1.6906946118   -2.2714892297   -0.4379587070
C       -1.2397394129   -1.1367445027   -1.2091663652
C       -2.1446938167   -4.1418918057    0.6581535325
C        1.2869244591   -3.7970324042    0.2146816901
C       -2.1294243985   -5.5397746167    1.1932708935
C        0.1139287230   -4.1175352859   -0.6944030883
N       -3.2179903570   -3.3882001761    0.7836614155
O        2.1335567417   -2.9507512623    0.0039420776
O       -2.8438590429   -2.1291398918    0.2695437081
O        1.2787371807   -4.5594949732    1.3388750670
S       -2.3908273323    0.0321889796   -1.8177584128
H        1.0242639626    0.7852316901   -2.7834861703
H        0.9216891290   -1.3831805436   -1.2891805523
H       -1.3725077526    1.8305677559   -3.1394070592
H       -1.2848725118   -5.6730589833    1.8759594001
H       -3.0579550981   -5.7463896279    1.7287443802
H       -2.0196740465   -6.2709451029    0.3848010517
H        0.3482331112   -3.7236475031   -1.6851070054
H        0.0117266152   -5.2044635316   -0.7627348518
H        2.0309891049   -4.2590848734    1.8852234531
24   
Generated by ForceBalance from scan.xyz: Frame 6 of 7
C        0.0980740509    0.3357611713   -2.4123686198
C        0.0526794751   -0.8533320074   -1.6313759868
C       -1.1349749666    0.9292222546   -2.5480669967
C       -1.1404615955   -3.5263176221   -0.1361946549
C       -1.6740426869   -2.2853271924   -0.4224586788
C       -1.2241548169   -1.1493373701   -1.1862157894
C       -2.1508061127   -4.1560614353    0.6924579342
C        1.3065427121   -3.8118577053    0.2213897812
C       -2.1671883901   -5.5687931329    1.1840637588
C        0.1191299349   -4.1508083164   -0.6616797828
N       -3.2474944936   -3.4240514416    0.6976228076
O        2.1555800248   -2.9773564297   -0.0241869608
O       -2.7749602134   -2.1239122898    0.3703945836
O        1.3069709062   -4.5416861775    1.3670892076
S       -2.3765059188    0.0511622347   -1.7297138324
H        1.0072167054    0.7431779833   -2.8417839706
H        0.9262878676   -1.4390013615   -1.3665215224
H       -1.3792899020    1.8438917237   -3.0737804697
H       -1.3923978967   -5.7054116215    1.9451465147
H       -3.1394540660   -5.8011712375    1.6226631245
H       -1.9624219424   -6.2791298042    0.3756508194
H        0.3385875745   -3.7792972963   -1.6644969688
H        0.0153484138   -5.2390356122   -0.7052836395
H        2.0675433027   -4.2309572267    1.8957494716
24   
Generated by ForceBalance from scan.xyz: Frame 7 of 7
C        0.1077658112    0.3183243341   -2.4427199106
C        0.0727941596   -0.8791954592   -1.6767427967
C       -1.1132941563    0.9507760995   -2.4967467656
C       -1.1071613494   -3.5234380208   -0.0871817943
C       -1.6345186737   -2.2781161027   -0.4039462311
C       -1.1858959654   -1.1447605394   -1.1612771802
C       -2.1714947002   -4.1637899437    0.7216255143
C        1.3424956695   -3.8011066332    0.2401786710
C       -2.2288208945   -5.5900198247    1.1627937592
C        0.1398762346   -4.1751135060   -0.6075887122
N       -3.2623178103   -3.4397554305    0.5714684766
O        2.1868729278   -2.9769981399   -0.0529150065
O       -2.6921038325   -2.1211758520    0.4608790192
O        1.3615057077   -4.4841706649    1.4142375501
S       -2.3311176455    0.0991919796   -1.6187261376
H        1.0020655219    0.7063511853   -2.9187279997
H        0.9421360203   -1.4929585345   -1.4675878100
H       -1.3581878208    1.8816675901   -2.9929666750
H       -1.5568420996   -5.7358224395    2.0152995096
H       -3.2451421854   -5.8448038602    1.4696354974
H       -1.9072801114   -6.2772857758    0.3728177010
H        0.3423088265   -3.8424580374   -1.6279419720
H        0.0377587792   -5.2645663757   -0.6086474101
H        2.1296393502   -4.1518904940    1.9181497139
