18   
Generated by ForceBalance from scan.xyz: Frame 1 of 24
C        2.0313641750   -1.1771721491   -0.2165659677
C        0.8309468466   -0.3334353908    1.7278179394
C        2.8282070932   -1.7024347951    2.0264112529
C        0.9756815822   -0.4463178250    0.3400804781
C        2.9390444118   -1.8029653015    0.6394467286
C        1.7682867717   -0.9577042171    2.5491020087
C       -0.0939552441    2.0557194776   -0.3095643645
C       -1.0334908145    2.9138863847   -1.1309709065
O        0.6277615321    2.4713219169    0.5670435726
S       -0.2128689573    0.2946532415   -0.7672142504
Cl       4.2605506778   -2.7307704307   -0.0438158926
Cl       1.6093489095   -0.8176566827    4.2890962474
H        2.1478928663   -1.2528939223   -1.2921713655
H        0.0141703335    0.2326505090    2.1592282345
H        3.5442186269   -2.1877168064    2.6801837660
H       -1.0223602324    2.6253403009   -2.1852644996
H       -0.7456466310    3.9607613449   -1.0214817827
H       -2.0542024065    2.7829808698   -0.7558902912
18   
Generated by ForceBalance from scan.xyz: Frame 2 of 24
C        2.0538536365   -1.1725266630   -0.2170938059
C        0.8157286898   -0.3569146356    1.7154683929
C        2.8154921024   -1.7179717070    2.0330809310
C        0.9846144974   -0.4538158133    0.3292821451
C        2.9507090128   -1.8025393670    0.6472152269
C        1.7424739991   -0.9850804060    2.5457308178
C       -0.0908529704    2.0478571351   -0.3099909129
C       -1.0348113386    2.9101550572   -1.1220078282
O        0.6181922074    2.4618812563    0.5780415058
S       -0.1886620306    0.2939966757   -0.7897053418
Cl       4.2890805361   -2.7151091570   -0.0235047353
Cl       1.5531752469   -0.8651772218    4.2841413038
H        2.1890410665   -1.2358666839   -1.2913294343
H       -0.0112522292    0.2002015394    2.1391263455
H        3.5230832129   -2.2063545579    2.6936798115
H       -1.2373159886    2.4898784239   -2.1097863648
H       -0.6073545725    3.9105726795   -1.2153544922
H       -1.9826306087    2.9888632936   -0.5784412990
18   
Generated by ForceBalance from scan.xyz: Frame 3 of 24
C        2.0669983139   -1.1676364643   -0.2169823030
C        0.8054432352   -0.3767178624    1.7112715483
C        2.8077118193   -1.7325260748    2.0355864306
C        0.9892175594   -0.4589267900    0.3259869970
C        2.9573446331   -1.8025405470    0.6503502831
C        1.7264323318   -1.0093766684    2.5446189376
C       -0.1208840773    2.0372789398   -0.2849506330
C       -1.0378660658    2.9068281637   -1.1203269345
O        0.5494159988    2.4476144486    0.6346950843
S       -0.1751424896    0.2935362282   -0.7990283399
Cl       4.3061891196   -2.7030520654   -0.0156316981
Cl       1.5188819579   -0.9079325220    4.2821095023
H        2.2135119097   -1.2198429292   -1.2903757991
H       -0.0279992631    0.1725953278    2.1321655406
H        3.5105956411   -2.2246728294    2.6984155964
H       -1.4024224089    2.4008872781   -2.0167433637
H       -0.4986403650    3.8162441858   -1.3971942618
H       -1.8929447224    3.1969326684   -0.5011349900
18   
Generated by ForceBalance from scan.xyz: Frame 4 of 24
C        2.0704732816   -1.1544090025   -0.2154122243
C        0.7878648166   -0.3973015089    1.7123391735
C        2.7997563681   -1.7389545170    2.0354784203
C        0.9823571977   -0.4613574852    0.3275247536
C        2.9602894449   -1.7916170478    0.6506592802
C        1.7084293122   -1.0315469092    2.5450968585
C       -0.1644484098    2.0270481544   -0.2556652846
C       -1.0442651069    2.9041510572   -1.1226066713
O        0.4689726438    2.4306222524    0.6927745778
S       -0.1805363907    0.2919399076   -0.7984088059
Cl       4.3219173025   -2.6723939684   -0.0158773473
Cl       1.4871762703   -0.9527165598    4.2820912774
H        2.2253306705   -1.1929001045   -1.2882226573
H       -0.0535014616    0.1392607700    2.1336098816
H        3.5021028371   -2.2326728162    2.6976934709
H       -1.5581818381    2.3477118054   -1.9091016286
H       -0.4173603230    3.6789515468   -1.5737935915
H       -1.7793448776    3.3995575792   -0.4817384886
18   
Generated by ForceBalance from scan.xyz: Frame 5 of 24
C        2.0687882551   -1.1358266135   -0.2151421376
C        0.7625870050   -0.4206674464    1.7129379955
C        2.7902474119   -1.7394114243    2.0333601724
C        0.9676875434   -0.4643014132    0.3288558454
C        2.9609835293   -1.7720856963    0.6491135912
C        1.6859377498   -1.0532692493    2.5439877458
C       -0.2045563063    2.0174056182   -0.2330756392
C       -1.0477714019    2.9014301244   -1.1281776140
O        0.4017389332    2.4131136375    0.7359794351
S       -0.1979031649    0.2872996021   -0.7953882266
Cl       4.3389854198   -2.6259875691   -0.0188427653
Cl       1.4514251727   -0.9999778498    4.2802051530
H        2.2315630526   -1.1585751601   -1.2872263757
H       -0.0890625952    0.0988024630    2.1348588134
H        3.4944885145   -2.2322699431    2.6942100522
H       -1.7112575833    2.3303880427   -1.7813104579
H       -0.3727288468    3.5017504687   -1.7469457776
H       -1.6298361241    3.5831221166   -0.5031693634
18   
Generated by ForceBalance from scan.xyz: Frame 6 of 24
C        2.0442666480   -1.1221482929   -0.2183223379
C        0.7104451632   -0.4473777507    1.7055309568
C        2.7526160162   -1.7408823617    2.0297297324
C        0.9289279211   -0.4723661395    0.3230204942
C        2.9372895974   -1.7558389728    0.6469422139
C        1.6344747573   -1.0762561214    2.5386680406
C       -0.2485232102    2.0069475566   -0.2306743345
C       -1.0679784384    2.8943690034   -1.1436719694
O        0.3442769787    2.3938787892    0.7498009033
S       -0.2374610349    0.2771086691   -0.8018412702
Cl       4.3334408990   -2.5829858788   -0.0172069628
Cl       1.3834472276   -1.0460933076    4.2732154763
H        2.2169524598   -1.1303713278   -1.2890340444
H       -0.1526203725    0.0552753476    2.1246580483
H        3.4575332535   -2.2315131724    2.6914818273
H       -1.8805483596    2.3475072150   -1.6285515892
H       -0.4082496519    3.2906604246   -1.9229790785
H       -1.4648035293    3.7310321364   -0.5652794446
18   
Generated by ForceBalance from scan.xyz: Frame 7 of 24
C        2.0534272839   -1.1058663316   -0.2155080688
C        0.6860189561   -0.4667682671    1.6967012417
C        2.7338627771   -1.7492828878    2.0346362933
C        0.9251229374   -0.4717183422    0.3174090907
C        2.9383721348   -1.7442963524    0.6546192863
C        1.6029581341   -1.0996009870    2.5346364368
C       -0.2564644794    2.0084406718   -0.2247795515
C       -1.0799771724    2.8971319477   -1.1329119013
O        0.3266568980    2.3862401350    0.7646949340
S       -0.2304299024    0.2828876629   -0.8152096359
Cl       4.3503608520   -2.5520431850    0.0001443965
Cl       1.3260321899   -1.0940317748    4.2654631285
H        2.2420789956   -1.0984722684   -1.2835108282
H       -0.1872072595    0.0233699433    2.1096134033
H        3.4326913250   -2.2432302572    2.7003923371
H       -2.0172896278    2.4112711279   -1.4183518113
H       -0.5139495455    3.0956057030   -2.0489776356
H       -1.2832197332    3.8401224353   -0.6228298829
18   
Generated by ForceBalance from scan.xyz: Frame 8 of 24
C        2.1020400920   -1.0830329685   -0.2146079334
C        0.6893657255   -0.4768685679    1.6748294726
C        2.7372183731   -1.7510152493    2.0418057050
C        0.9582965778   -0.4626832111    0.3011217371
C        2.9716581671   -1.7271749576    0.6667919342
C        1.5915384310   -1.1145192063    2.5249157411
C       -0.2210104301    2.0186881950   -0.2370678458
C       -1.0793328306    2.9022867349   -1.1181279395
O        0.3618596306    2.3906518996    0.7546587006
S       -0.1768623730    0.2993398288   -0.8470897402
Cl       4.4026992037   -2.5179097657    0.0333330286
Cl       1.2767011457   -1.1321777423    4.2492113778
H        2.3141180567   -1.0606420820   -1.2779778329
H       -0.1957725237    0.0027853708    2.0746515098
H        3.4245173766   -2.2490018108    2.7164936004
H       -2.1010949078    2.5123869623   -1.1615235015
H       -0.6848935395    2.9161453990   -2.1386052173
H       -1.0865687122    3.9138228582   -0.7095027254
18   
Generated by ForceBalance from scan.xyz: Frame 9 of 24
C        2.1282158588   -1.0728130948   -0.2120051658
C        0.6715112406   -0.4938523715    1.6521341400
C        2.7154635309   -1.7645701446    2.0502528781
C        0.9708383849   -0.4629261616    0.2850359998
C        2.9805945273   -1.7237766305    0.6812641314
C        1.5567022540   -1.1379957365    2.5149100941
C       -0.1971030123    2.0219185878   -0.2531211550
C       -1.0954378828    2.8993861253   -1.0998821335
O        0.3922101806    2.3916417040    0.7357974776
S       -0.1412393839    0.3096942933   -0.8786346427
Cl       4.4287361621   -2.5013698782    0.0710317674
Cl       1.2034485548   -1.1766172806    4.2313902681
H        2.3639618045   -1.0370788144   -1.2700081891
H       -0.2240411326   -0.0216028414    2.0376263233
H        3.3895454551   -2.2676439545    2.7344337009
H       -2.1410515549    2.6492265199   -0.8912210753
H       -0.9174751444    2.7398236544   -2.1666924719
H       -0.9182626815    3.9442999291   -0.8401771910
18   
Generated by ForceBalance from scan.xyz: Frame 10 of 24
C        2.1500779545   -1.0663661737   -0.2097116386
C        0.6585478963   -0.5151281762    1.6355132090
C        2.7015358939   -1.7806575223    2.0546055918
C        0.9814186970   -0.4677382009    0.2742734657
C        2.9901651590   -1.7230940345    0.6909840704
C        1.5318079422   -1.1649080329    2.5061264332
C       -0.1897018740    2.0164654082   -0.2561272720
C       -1.0992089092    2.8951293673   -1.0896434528
O        0.3898773144    2.3831617907    0.7399992223
S       -0.1139161868    0.3141323738   -0.8991143429
Cl       4.4525182390   -2.4866929159    0.0974108651
Cl       1.1492570040   -1.2245524246    4.2156569522
H        2.4037994926   -1.0177201333   -1.2630539196
H       -0.2456039100   -0.0509946919    2.0107971182
H        3.3662041773   -2.2881522250    2.7447149220
H       -2.1136855315    2.8281473439   -0.6817799732
H       -1.1282325743    2.5856308747   -2.1370105477
H       -0.7610629647    3.9301356177   -1.0096327583
18   
Generated by ForceBalance from scan.xyz: Frame 11 of 24
C        2.1640975731   -1.0606641645   -0.2071050714
C        0.6491243652   -0.5360740178    1.6273252639
C        2.6940941201   -1.7962829390    2.0554221066
C        0.9872042473   -0.4728333869    0.2704097698
C        2.9974264147   -1.7228857240    0.6957406520
C        1.5163670283   -1.1909753502    2.5001972537
C       -0.2162796089    2.0024126949   -0.2386652247
C       -1.1011721876    2.8915490033   -1.0878764779
O        0.3253560698    2.3611171553    0.7817753864
S       -0.0980257159    0.3152099846   -0.9080943231
Cl       4.4698137807   -2.4733032879    0.1102369514
Cl       1.1154652954   -1.2707420200    4.2046340418
H        2.4291759270   -0.9998487253   -1.2570506235
H       -0.2611785681   -0.0803004878    1.9977218742
H        3.3535653615   -2.3078772289    2.7474960012
H       -2.0498438243    3.0353858526   -0.5603339310
H       -1.3039799449    2.4692219468   -2.0743145828
H       -0.6199128106    3.8672656752   -1.1901272012
18   
Generated by ForceBalance from scan.xyz: Frame 12 of 24
C        1.6022052423   -1.4233040349   -0.1052602058
C        0.9378346685   -0.1077026275    1.8342520132
C        2.7816100315   -1.6957603809    2.0098495950
C        0.7769056403   -0.4619837714    0.4895650905
C        2.5896445341   -2.0332309156    0.6698816188
C        1.9469572049   -0.7262252848    2.5706506041
C       -0.1509612544    2.0352307390   -0.3757790760
C       -1.1006713745    2.8762464692   -1.2038860148
O        0.7441349893    2.4910100689    0.2985209697
S       -0.5217934409    0.2597071703   -0.5004590722
Cl       3.6237277358   -3.2468485907   -0.0594546394
Cl       2.1704936297   -0.2872361220    4.2527939749
H        1.4829036688   -1.6877323424   -1.1503500668
H        0.3002246445    0.6365967983    2.2955199775
H        3.5568544423   -2.1720902625    2.5994914121
H       -1.6027373615    3.5872113054   -0.5412577722
H       -1.8455751522    2.2799422714   -1.7348123999
H       -0.5108981310    3.4491355109   -1.9254720472
18   
Generated by ForceBalance from scan.xyz: Frame 13 of 24
C        1.6023801723   -1.4047984771   -0.1086520928
C        0.9090082700   -0.1264376841    1.8458531077
C        2.7698093897   -1.6958558338    2.0108356529
C        0.7619220941   -0.4620347841    0.4947781402
C        2.5911531648   -2.0149787754    0.6645097843
C        1.9200216352   -0.7446188846    2.5800919262
C       -0.1892763522    2.0375123809   -0.3396524056
C       -1.1075431030    2.8730061332   -1.2071050726
O        0.6804527443    2.4948200957    0.3658254365
S       -0.5386735840    0.2588350495   -0.4932563753
Cl       3.6443912298   -3.2054937257   -0.0754993865
Cl       2.1262834684   -0.3290803064    4.2703855700
H        1.4935749040   -1.6547125496   -1.1584506130
H        0.2592683661    0.6030382186    2.3136875553
H        3.5462034376   -2.1723431191    2.5988422495
H       -1.4327837011    3.7471313200   -0.6377105095
H       -1.9738724224    2.3130457959   -1.5660509700
H       -0.5327467010    3.2244886982   -2.0702530170
18   
Generated by ForceBalance from scan.xyz: Frame 14 of 24
C        1.6617795285   -1.3716922114   -0.1269066513
C        0.9265141331   -0.1486238849    1.8479104738
C        2.8119084416   -1.6899220504    1.9983826364
C        0.7993935038   -0.4567777863    0.4883089460
C        2.6525460155   -1.9820826777    0.6435257467
C        1.9402803670   -0.7658504607    2.5791924099
C       -0.1619838790    2.0466781181   -0.3179929688
C       -1.0615962569    2.8822170410   -1.2040119219
O        0.6938520510    2.4971871626    0.4079447454
S       -0.5028757019    0.2659296832   -0.4962267728
Cl       3.7335074888   -3.1382508286   -0.1108897018
Cl       2.1220808717   -0.3843357464    4.2802821324
H        1.5679125724   -1.6000970593   -1.1830108977
H        0.2592152844    0.5591713397    2.3243340144
H        3.5900988602   -2.1663419080    2.5840745070
H       -1.1927478338    3.8670390287   -0.7512228548
H       -2.0320589526    2.4076787569   -1.3692407725
H       -0.5704525467    3.0068911052   -2.1750734873
18   
Generated by ForceBalance from scan.xyz: Frame 15 of 24
C        1.7042753521   -1.3520984593   -0.1384713225
C        0.9234629038   -0.1656737721    1.8409309043
C        2.8214467830   -1.6905439128    2.0011190847
C        0.8223512447   -0.4548530743    0.4749962339
C        2.6879054745   -1.9643094479    0.6396826040
C        1.9309158762   -0.7835768319    2.5802606066
C       -0.1419048716    2.0515921457   -0.3174249819
C       -1.0473030221    2.8902021314   -1.1948685583
O        0.7054429271    2.4956647521    0.4218823997
S       -0.4707334856    0.2689655823   -0.5207942225
Cl       3.7928872285   -3.0987210897   -0.1130485164
Cl       2.0801513416   -0.4252479284    4.2895798463
H        1.6306225287   -1.5656130655   -1.1992544513
H        0.2409098772    0.5282579995    2.3161919807
H        3.5943388221   -2.1678954288    2.5930288909
H       -0.9887636155    3.9317951009   -0.8746803199
H       -2.0817427091    2.5386665165   -1.1453646955
H       -0.7137950864    2.8128409891   -2.2348210896
18   
Generated by ForceBalance from scan.xyz: Frame 16 of 24
C        1.7552907772   -1.3390009687   -0.1530731469
C        0.9213143288   -0.1791246629    1.8198719405
C        2.8254521766   -1.6926594566    2.0081492276
C        0.8532544988   -0.4542425787    0.4489803050
C        2.7249374873   -1.9528638363    0.6412762417
C        1.9156345251   -0.7977357139    2.5760124319
C       -0.1097967291    2.0539839464   -0.3395638690
C       -1.0440972414    2.8976314220   -1.1817646435
O        0.7358460772    2.4937176771    0.4042025432
S       -0.4217022626    0.2707705997   -0.5691566081
Cl       3.8546565939   -3.0718414911   -0.0976390357
Cl       2.0230511747   -0.4560825589    4.2919270427
H        1.7077401015   -1.5415558906   -1.2174774869
H        0.2233308924    0.5052456793    2.2866046204
H        3.5879288323   -2.1709519763    2.6126651730
H       -0.8165684619    3.9519394458   -1.0175792929
H       -2.0838540724    2.6967372798   -0.9050056863
H       -0.9267466217    2.6525483968   -2.2415214388
18   
Generated by ForceBalance from scan.xyz: Frame 17 of 24
C        1.7814855838   -1.3334684179   -0.1581197968
C        0.8976110886   -0.1950326866    1.8053659765
C        2.8046602408   -1.7007701736    2.0233703002
C        0.8615742037   -0.4586835220    0.4310611547
C        2.7363773521   -1.9494610112    0.6524008228
C        1.8777033347   -0.8153353102    2.5783525743
C       -0.0930755032    2.0509321932   -0.3577021357
C       -1.0563142079    2.9009176535   -1.1600243325
O        0.7546263096    2.4875578504    0.3858044665
S       -0.3932781021    0.2699762998   -0.6091980082
Cl       3.8883126850   -3.0560021281   -0.0706391710
Cl       1.9448840270   -0.4879777871    4.2990748481
H        1.7589483957   -1.5267177357   -1.2250691130
H        0.1861333742    0.4822730473    2.2621613685
H        3.5559096815   -2.1803958596    2.6407471147
H       -0.6904896392    3.9287479727   -1.1812529981
H       -2.0393119055    2.8791729080   -0.6776011365
H       -1.1729410721    2.5195573530   -2.1779073200
18   
Generated by ForceBalance from scan.xyz: Frame 18 of 24
C        1.8480245802   -1.3151486859   -0.1827244794
C        0.9181065319   -0.2001133203    1.7730457821
C        2.8316122626   -1.6940953202    2.0150183314
C        0.9105655004   -0.4520478277    0.3960488200
C        2.7915123090   -1.9312756160    0.6409090458
C        1.8876310815   -0.8201428356    2.5594293318
C       -0.0773530248    2.0538530015   -0.3711262872
C       -1.0500976429    2.8995787722   -1.1664916375
O        0.7446814175    2.4982459188    0.3967234466
S       -0.3291398494    0.2743317493   -0.6637499602
Cl       3.9650913622   -3.0232774308   -0.0691908611
Cl       1.9191362586   -0.5073105279    4.2838564373
H        1.8476698940   -1.4994208969   -1.2515391287
H        0.1934485900    0.4682286316    2.2221254666
H        3.5743257343   -2.1736528058    2.6426913427
H       -0.5919103513    3.8697382019   -1.3684835890
H       -1.9473699736    3.0582390916   -0.5584003024
H       -1.3492179796    2.4190010862   -2.1009214594
18   
Generated by ForceBalance from scan.xyz: Frame 19 of 24
C        1.8816924667   -1.2974413387   -0.1930025308
C        0.9171479384   -0.2163708284    1.7652604296
C        2.8441856139   -1.6920589941    2.0111641712
C        0.9282151779   -0.4517120807    0.3853541687
C        2.8225895619   -1.9130451244    0.6339097274
C        1.8844377629   -0.8353120753    2.5553105831
C       -0.0866069864    2.0509346592   -0.3582576445
C       -1.0435970897    2.8988963826   -1.1706432586
O        0.7109151940    2.4976790115    0.4340861156
S       -0.3067906303    0.2744050773   -0.6800688158
Cl       4.0162926660   -2.9834004566   -0.0755807845
Cl       1.8928199424   -0.5432850493    4.2836218055
H        1.8954783954   -1.4689299775   -1.2638763189
H        0.1802173552    0.4386353127    2.2139210693
H        3.5849666847   -2.1710476251    2.6415466535
H       -0.5009134977    3.7649152550   -1.5571640667
H       -1.8311224763    3.2625727043   -0.5023383967
H       -1.5042634274    2.3474705378   -1.9930473521
18   
Generated by ForceBalance from scan.xyz: Frame 20 of 24
C        1.9095693047   -1.2743222729   -0.2006171233
C        0.9152672168   -0.2353837294    1.7660492896
C        2.8610847121   -1.6879056532    2.0050751961
C        0.9402213415   -0.4504428285    0.3830267159
C        2.8527012255   -1.8887432052    0.6245518196
C        1.8853302040   -0.8526840513    2.5541150453
C       -0.1042340839    2.0485601361   -0.3317583760
C       -1.0303485297    2.9003133704   -1.1755532591
O        0.6655903426    2.4946415037    0.4880026796
S       -0.2967440409    0.2747110951   -0.6807144647
Cl       4.0664780082   -2.9319740197   -0.0912417673
Cl       1.8767219018   -0.5862740182    4.2865066615
H        1.9336007086   -1.4300622549   -1.2737296264
H        0.1658955184    0.4026351315    2.2184750078
H        3.6037111712   -2.1659069351    2.6340546714
H       -0.4232233501    3.6165646001   -1.7365272297
H       -1.6856054054    3.4662210487   -0.5067224535
H       -1.6362773723    2.3127541241   -1.8683788761
18   
Generated by ForceBalance from scan.xyz: Frame 21 of 24
C        1.9360507135   -1.2453274374   -0.2056320120
C        0.9120748719   -0.2572825924    1.7715097348
C        2.8802131377   -1.6818877306    1.9990228400
C        0.9493520101   -0.4475037583    0.3851485728
C        2.8837946023   -1.8584821020    0.6151321779
C        1.8871069264   -0.8724000803    2.5553247016
C       -0.1182131305    2.0490105928   -0.3015479256
C       -1.0103197888    2.9037323407   -1.1776522344
O        0.6276808908    2.4896697429    0.5426743685
S       -0.2927409757    0.2768232892   -0.6732187042
Cl       4.1191824287   -2.8690815926   -0.1104868976
Cl       1.8625674966   -0.6364730661    4.2919387004
H        1.9695630219   -1.3821597347   -1.2810531979
H        0.1491587347    0.3601833884    2.2297132827
H        3.6264124412   -2.1587092600    2.6246809623
H       -0.3766159112    3.4280720755   -1.9002394273
H       -1.5033136817    3.6530221543   -0.5531133585
H       -1.7562859686    2.3184876087   -1.7196456315
18   
Generated by ForceBalance from scan.xyz: Frame 22 of 24
C        1.9649693263   -1.2168025269   -0.2098374557
C        0.9074636553   -0.2781082738    1.7742627516
C        2.8934707361   -1.6775251902    1.9964559770
C        0.9612557674   -0.4437475541    0.3851956220
C        2.9133978274   -1.8302936952    0.6098753548
C        1.8835388446   -0.8924162692    2.5573985780
C       -0.1237199686    2.0519607440   -0.2763255189
C       -0.9925155545    2.9086139667   -1.1728828573
O        0.6031811387    2.4852719751    0.5876031468
S       -0.2815225979    0.2810852596   -0.6720298181
Cl       4.1706224496   -2.8103128142   -0.1203661771
Cl       1.8387862716   -0.6873745594    4.2976208443
H        2.0108281385   -1.3343914243   -1.2870693954
H        0.1307000090    0.3197751681    2.2350871862
H        3.6404477393   -2.1543730408    2.6211432923
H       -0.3946754786    3.2173570168   -2.0371690403
H       -1.2964591385    3.8030526922   -0.6251724436
H       -1.8699517806    2.3688065628   -1.5371581598
18   
Generated by ForceBalance from scan.xyz: Frame 23 of 24
C        1.9783324903   -1.1994603435   -0.2128818851
C        0.8817199510   -0.2948900058    1.7652979323
C        2.8751978045   -1.6814779519    2.0015366265
C        0.9587819496   -0.4419352446    0.3752990278
C        2.9185519531   -1.8164288609    0.6136537262
C        1.8502432447   -0.9114125646    2.5560449803
C       -0.1351536950    2.0537910561   -0.2720942884
C       -1.0039244625    2.9107105025   -1.1684804751
O        0.5767340153    2.4791472117    0.6077793164
S       -0.2733242809    0.2846738311   -0.6931050701
Cl       4.1949428424   -2.7772654830   -0.1089314400
Cl       1.7760724100   -0.7289647389    4.2978109988
H        2.0423858947   -1.3025456160   -1.2906342544
H        0.0927366711    0.2906188595    2.2212461914
H        3.6158415961   -2.1604873741    2.6320683261
H       -0.5235212038    3.0019394478   -2.1483199333
H       -1.1033792420    3.9035240948   -0.7265517817
H       -1.9888945510    2.4599341602   -1.3179994100
18   
Generated by ForceBalance from scan.xyz: Frame 24 of 24
C        2.0025909958   -1.1854613258   -0.2154206593
C        0.8541510411   -0.3127247154    1.7473539107
C        2.8509617360   -1.6890168773    2.0134974767
C        0.9644492606   -0.4421486829    0.3578619207
C        2.9273945378   -1.8064614893    0.6255023220
C        1.8080842423   -0.9324209550    2.5530362651
C       -0.1191065189    2.0566260001   -0.2894809755
C       -1.0217003328    2.9143576539   -1.1517119302
O        0.5959796007    2.4753110119    0.5908531932
S       -0.2472156350    0.2903490163   -0.7297725805
Cl       4.2267791203   -2.7498899238   -0.0787097394
Cl       1.6922039463   -0.7714172705    4.2946598450
H        2.0925478102   -1.2745435747   -1.2925504943
H        0.0508021774    0.2621957997    2.1917747579
H        3.5800448782   -2.1707600068    2.6553234433
H       -0.7563345935    2.8008379318   -2.2071285216
H       -0.9120430155    3.9581129517   -0.8536603352
H       -2.0639000301    2.6016493271   -1.0341335528
