13   
Generated by ForceBalance from scan.xyz: Frame 1 of 24
C        2.2128869622    0.7257628635   -0.2638790800
C        2.6934590019    1.9060246654    0.2101204754
C        0.8004222080    0.8500376742   -0.0829782715
C       -0.2385116100   -0.1662466802   -0.4327487002
C       -1.6828095623    0.1373737512   -0.1017489365
N        0.4746382351    2.0133360671    0.4536478896
O        0.1126788704   -1.2182732156   -0.9483843147
O        1.6729606258    2.6884369163    0.6425724608
H        2.7479526545   -0.1151250546   -0.6795612557
H        3.6832205764    2.3317882980    0.3077977706
H       -1.9516013787   -0.4342113877    0.7941756439
H       -2.3186457744   -0.2108198675   -0.9189132993
H       -1.8518180702    1.1948038241    0.1041715405
13   
Generated by ForceBalance from scan.xyz: Frame 2 of 24
C        2.2033880446    0.7828020215    0.1617089398
C        2.6721536479    1.8536808526   -0.5329466241
C        0.7965656136    0.8203860189   -0.0878366720
C       -0.2325027310   -0.1299949918    0.4360470498
C       -1.6830056488    0.1484163787    0.1179304230
N        0.4629758937    1.8321560384   -0.8697052306
O        0.1285685687   -1.0727028143    1.1263391896
O        1.6505862126    2.4925854553   -1.1560372008
H        2.7429195779    0.0656609278    0.7623890240
H        3.6540462123    2.2816136664   -0.6852240211
H       -2.0727281366    0.8380866614    0.8765941415
H       -2.2516824574   -0.7813175318    0.1718982536
H       -1.8039569051    0.6350279419   -0.8516994805
13   
Generated by ForceBalance from scan.xyz: Frame 3 of 24
C        2.2095262438    0.7714792530    0.1376214061
C        2.6658720206    1.8724820087   -0.5173455918
C        0.7982804117    0.8208965212   -0.0825102674
C       -0.2239207872   -0.1516863433    0.4147177241
C       -1.6743115194    0.1394519775    0.1124827045
N        0.4502134515    1.8678457673   -0.8091903534
O        0.1454086213   -1.1238631968    1.0578856096
O        1.6329934957    2.5398009503   -1.0896448710
H        2.7601039872    0.0276784336    0.6942562099
H        3.6451504770    2.3063457800   -0.6695999908
H       -2.0008322919    0.9934722166    0.7170263100
H       -2.2793092593   -0.7334934886    0.3604210630
H       -1.8095679276    0.4263358581   -0.9337096227
13   
Generated by ForceBalance from scan.xyz: Frame 4 of 24
C        2.2026703800    0.7364542074    0.1166471846
C        2.6608989898    1.8654580783   -0.4874669143
C        0.7864209730    0.8266819181   -0.0522383479
C       -0.2406451934   -0.1534171913    0.4199884699
C       -1.6869056251    0.1428228085    0.1037780762
N        0.4372242305    1.9222590750   -0.7024269145
O        0.1240397503   -1.1460298551    1.0338418176
O        1.6243945493    2.5870075340   -0.9820039614
H        2.7550719267   -0.0499003962    0.6093186500
H        3.6438068173    2.2883616521   -0.6469795156
H       -1.9718908504    1.1177731898    0.5115055839
H       -2.3172020050   -0.6425032021    0.5225980599
H       -1.8290045935    0.2035286393   -0.9801197103
13   
Generated by ForceBalance from scan.xyz: Frame 5 of 24
C        2.2075706702    0.7320329812    0.0935961657
C        2.6618119312    1.8834244048   -0.4697469727
C        0.7888739624    0.8384111422   -0.0426847927
C       -0.2341530753   -0.1573460977    0.4041077465
C       -1.6840569171    0.1413988250    0.1053395453
N        0.4348702131    1.9635586093   -0.6378409040
O        0.1372985869   -1.1768668511    0.9678767242
O        1.6209406428    2.6322154267   -0.9120406024
H        2.7638790142   -0.0786027874    0.5403777985
H        3.6443143086    2.3071688831   -0.6295448797
H       -1.9293376905    1.1837857715    0.3232601426
H       -2.3176189700   -0.5373284584    0.6779768839
H       -1.8662716668   -0.0134346398   -0.9644445192
13   
Generated by ForceBalance from scan.xyz: Frame 6 of 24
C        2.2007233262    0.7036421060    0.0694884491
C        2.6640180384    1.8757778342   -0.4408476536
C        0.7818546518    0.8355027695   -0.0416098014
C       -0.2467202195   -0.1679262140    0.3721207960
C       -1.6969984434    0.1419267161    0.0818629252
N        0.4363186922    1.9934268832   -0.5766183160
O        0.1188679870   -1.2107506523    0.8960449046
O        1.6279552755    2.6586190201   -0.8331946000
H        2.7510440959   -0.1356643137    0.4681226586
H        3.6501831567    2.2942588799   -0.5917954352
H       -1.9010842796    1.2139536760    0.0988248896
H       -2.3278139618   -0.3913182157    0.7954802293
H       -1.9321005501   -0.2267611235   -0.9237340488
13   
Generated by ForceBalance from scan.xyz: Frame 7 of 24
C        2.1982065127    0.6934968410    0.0569925640
C        2.6662979975    1.8821550097   -0.4084295562
C        0.7799132601    0.8334962203   -0.0529007769
C       -0.2504043603   -0.1829028703    0.3208653415
C       -1.7063234523    0.1408735480    0.0687303713
N        0.4394712430    2.0124475472   -0.5443974164
O        0.1151412686   -1.2502278280    0.7932635439
O        1.6335190954    2.6827883329   -0.7731018261
H        2.7448222550   -0.1619477204    0.4252439066
H        3.6540705703    2.3028339816   -0.5417737410
H       -1.8771338661    1.2044760525   -0.0998932291
H       -2.3004457793   -0.2194314083    0.9120438992
H       -2.0297887039   -0.4129766048   -0.8199368534
13   
Generated by ForceBalance from scan.xyz: Frame 8 of 24
C        2.1934423745    0.6845122040    0.0515595514
C        2.6639196326    1.8890389040   -0.3682165651
C        0.7760857282    0.8250544289   -0.0699776045
C       -0.2548332966   -0.2060281169    0.2579939703
C       -1.7148883990    0.1390480196    0.0582788504
N        0.4385658371    2.0190488609   -0.5263726953
O        0.1107954448   -1.2965502205    0.6741565117
O        1.6333651631    2.6991933438   -0.7181687661
H        2.7378325306   -0.1817564665    0.3970901503
H        3.6520985128    2.3160219720   -0.4761237619
H       -1.8626497889    1.1613755489   -0.2897605715
H       -2.2410811212   -0.0130820175    1.0054415971
H       -2.1409309872   -0.5628368218   -0.6654628744
13   
Generated by ForceBalance from scan.xyz: Frame 9 of 24
C        2.1864506234    0.6749478060    0.0480272949
C        2.6563384948    1.8952464677   -0.3243054048
C        0.7700105116    0.8139452786   -0.0850394160
C       -0.2606385906   -0.2316190901    0.1956480877
C       -1.7209425914    0.1368416003    0.0511868520
N        0.4324236214    2.0213167336   -0.5043852481
O        0.1057440852   -1.3424081807    0.5532916382
O        1.6263814608    2.7127399733   -0.6583214932
H        2.7307346901   -0.2005848117    0.3695492075
H        3.6438291962    2.3295405552   -0.4061693565
H       -1.8637265107    1.0831822863   -0.4713143791
H       -2.1549320211    0.2180081497    1.0538635257
H       -2.2403633191   -0.6708173096   -0.4706053454
13   
Generated by ForceBalance from scan.xyz: Frame 10 of 24
C        2.1793352619    0.6622347730    0.0374527403
C        2.6458443486    1.8985309423   -0.2832861649
C        0.7625847825    0.8034868202   -0.0884891684
C       -0.2676869583   -0.2536972965    0.1502136649
C       -1.7246997322    0.1346187552    0.0459347650
N        0.4214496546    2.0262398101   -0.4560900573
O        0.0991878944   -1.3805278957    0.4523925759
O        1.6137855189    2.7268598180   -0.5814717581
H        2.7262140845   -0.2246760709    0.3211984108
H        3.6322786117    2.3380828372   -0.3478866061
H       -1.8797259920    0.9644190658   -0.6458633226
H       -2.0666959792    0.4585872965    1.0359819893
H       -2.3090648396   -0.7372790991   -0.2537978084
13   
Generated by ForceBalance from scan.xyz: Frame 11 of 24
C        2.1844157473    0.6602946831    0.0088203857
C        2.6408511085    1.9131229875   -0.2585121193
C        0.7654663841    0.8012913389   -0.0876537514
C       -0.2597269086   -0.2691160961    0.1150306283
C       -1.7151430972    0.1257991421    0.0340390777
N        0.4135209163    2.0384186018   -0.3896326970
O        0.1126783148   -1.4076921810    0.3603680236
O        1.6011428877    2.7501114797   -0.4997046828
H        2.7394081393   -0.2366789483    0.2404336390
H        3.6244445007    2.3598113635   -0.3169919458
H       -1.8978797636    0.7951279085   -0.8104409309
H       -1.9862149891    0.6775828058    0.9414712099
H       -2.3300843639   -0.7719247936   -0.0422078666
13   
Generated by ForceBalance from scan.xyz: Frame 12 of 24
C        2.1726484490    0.6321696241   -0.0209363059
C        2.6353738197    1.8944030019   -0.2264743625
C        0.7531768991    0.7945930852   -0.0545901586
C       -0.2793709484   -0.2743184881    0.1179353919
C       -1.7304741592    0.1331156544    0.0292239374
N        0.4065820141    2.0519741692   -0.2640598310
O        0.0849475614   -1.4236153656    0.3215254263
O        1.5986766265    2.7563048773   -0.3745083527
H        2.7240155234   -0.2835378786    0.1330301712
H        3.6219601364    2.3331677725   -0.2937656635
H       -1.9342984179    0.5923873302   -0.9433422845
H       -1.9559011323    0.8913235822    0.7859856773
H       -2.3622951298   -0.7440418065    0.1732240325
13   
Generated by ForceBalance from scan.xyz: Frame 13 of 24
C        2.1763884921    0.6368808446   -0.0499293422
C        2.6376180752    1.9071230305   -0.2019968518
C        0.7569298277    0.8030393957   -0.0384201341
C       -0.2727380904   -0.2731047042    0.1012272367
C       -1.7263607659    0.1296904240    0.0267164110
N        0.4090181174    2.0704485796   -0.1731031790
O        0.0950563503   -1.4304418283    0.2445967697
O        1.5999796878    2.7773599200   -0.2777021781
H        2.7286234326   -0.2865948812    0.0419858081
H        3.6234821553    2.3471957785   -0.2713950180
H       -1.9807254657    0.3566455491   -1.0150178963
H       -1.9166642929    1.0376714450    0.6045008956
H       -2.3485164773   -0.6934834898    0.3805117917
13   
Generated by ForceBalance from scan.xyz: Frame 14 of 24
C        2.1766757135    0.6290382404   -0.0766998563
C        2.6475555906    1.9011940520   -0.1706276414
C        0.7590249082    0.8064161165   -0.0342837903
C       -0.2754873766   -0.2685870672    0.0666678828
C       -1.7309757714    0.1353187082    0.0115255915
N        0.4214016953    2.0826108293   -0.0973415906
O        0.0874530822   -1.4330226139    0.1562618776
O        1.6170500065    2.7832826330   -0.1848310749
H        2.7212629193   -0.3028222103   -0.0412031341
H        3.6363218573    2.3357965809   -0.2330085925
H       -2.0539232286    0.1186278306   -1.0360932064
H       -1.8910448129    1.1458981483    0.3913795473
H       -2.3269462491   -0.5895726801    0.5690950489
13   
Generated by ForceBalance from scan.xyz: Frame 15 of 24
C        2.1847527961    0.6376643547   -0.0902026594
C        2.6579072400    1.9116083824   -0.1319895499
C        0.7670431781    0.8152265431   -0.0466462911
C       -0.2670529990   -0.2625944394    0.0088508187
C       -1.7266309689    0.1359646799    0.0027646429
N        0.4316895206    2.0938439869   -0.0618141020
O        0.0963078750   -1.4301755411    0.0358280717
O        1.6284838704    2.7952137751   -0.1166700451
H        2.7276916260   -0.2958208440   -0.0890134029
H        3.6474924345    2.3468971692   -0.1731627802
H       -2.1456285391   -0.1104020229   -0.9790350509
H       -1.8701570219    1.2007093441    0.1889960947
H       -2.2592074179   -0.4583603113    0.7494668921
13   
Generated by ForceBalance from scan.xyz: Frame 16 of 24
C        2.1795167960    0.6312317002   -0.1027305968
C        2.6583897912    1.9036365479   -0.0920513340
C        0.7622279161    0.8133223632   -0.0633018091
C       -0.2762595993   -0.2613714743   -0.0557127600
C       -1.7348942001    0.1399365766   -0.0104534048
N        0.4325067446    2.0931998462   -0.0312017841
O        0.0821947403   -1.4305011808   -0.0832267096
O        1.6325973432    2.7906237150   -0.0488776823
H        2.7184302983   -0.3040774975   -0.1334215875
H        3.6500514604    2.3357744455   -0.1099584138
H       -2.2466725324   -0.3114016141   -0.8657528817
H       -1.8752519116    1.2208173505   -0.0204540934
H       -2.1824752447   -0.2824473241    0.8946542645
13   
Generated by ForceBalance from scan.xyz: Frame 17 of 24
C        2.1844664584    0.6378533079   -0.1107432045
C        2.6599535357    1.9102811747   -0.0517958712
C        0.7664399586    0.8156487047   -0.0820558684
C       -0.2704778378   -0.2602147833   -0.1225555464
C       -1.7261723101    0.1381518372   -0.0207612118
N        0.4330076265    2.0928708516   -0.0118979575
O        0.0891712353   -1.4259123854   -0.2107011943
O        1.6315898907    2.7931532604    0.0085179875
H        2.7261256590   -0.2947152081   -0.1664621452
H        3.6506916482    2.3448134554   -0.0436818892
H       -2.3102847038   -0.4752325273   -0.7110881714
H       -1.8859420490    1.1992309241   -0.2142652225
H       -2.0721768770   -0.0908343433    0.9936135333
13   
Generated by ForceBalance from scan.xyz: Frame 18 of 24
C        2.1873346136    0.6433243895   -0.1257758583
C        2.6570734740    1.9149242266   -0.0191568953
C        0.7686089969    0.8138701355   -0.0933708210
C       -0.2657232195   -0.2628736067   -0.1758224820
C       -1.7166457641    0.1347283054   -0.0333013414
N        0.4290923252    2.0855739030    0.0245943054
O        0.0952185113   -1.4223387420   -0.3207163623
O        1.6247378741    2.7901231294    0.0731076229
H        2.7334098809   -0.2840252241   -0.2153434524
H        3.6458844561    2.3531473370    0.0062801350
H       -2.3419258370   -0.5991424546   -0.5451416298
H       -1.9064382702    1.1430256856   -0.4054514539
H       -1.9738687923    0.1183822713    1.0325332316
13   
Generated by ForceBalance from scan.xyz: Frame 19 of 24
C        2.1899565533    0.6504819900   -0.1510781549
C        2.6546055512    1.9187682901    0.0068647063
C        0.7711091095    0.8120292398   -0.0931472067
C       -0.2614468449   -0.2641474998   -0.2092163977
C       -1.7099863361    0.1302861873   -0.0453890353
N        0.4266966721    2.0751113169    0.0843473001
O        0.1012557012   -1.4150788675   -0.4067667868
O        1.6195229988    2.7836565706    0.1493124447
H        2.7395939280   -0.2688887881   -0.2884828418
H        3.6415625406    2.3605932331    0.0402349783
H       -2.3472526227   -0.6907351138   -0.3767810938
H       -1.9374896198    1.0482966895   -0.5928646796
H       -1.9060668197    0.3322371330    1.0140398449
13   
Generated by ForceBalance from scan.xyz: Frame 20 of 24
C        2.1963021211    0.6732044588   -0.1871155637
C        2.6527514473    1.9359617218    0.0289478234
C        0.7786663339    0.8138584195   -0.0733282368
C       -0.2473101248   -0.2655292709   -0.2174591973
C       -1.6981364068    0.1221152129   -0.0612649803
N        0.4272086456    2.0601107365    0.1881093264
O        0.1219401929   -1.4074749432   -0.4512863049
O        1.6141149580    2.7785849806    0.2542586951
H        2.7506662847   -0.2299599297   -0.3949767179
H        3.6356810081    2.3870779598    0.0561224859
H       -2.3258571234   -0.7571431813   -0.2103484184
H       -1.9608274474    0.9039874334   -0.7807836716
H       -1.8685675065    0.5438757696    0.9346091654
13   
Generated by ForceBalance from scan.xyz: Frame 21 of 24
C        2.1984567235    0.6862666639   -0.2133732682
C        2.6572627712    1.9381406187    0.0544681622
C        0.7842593273    0.8132743880   -0.0508228735
C       -0.2410446374   -0.2625114644   -0.2221932994
C       -1.6923133378    0.1221585049   -0.0617707518
N        0.4364513887    2.0428656730    0.2844072846
O        0.1267503589   -1.3944432558   -0.5028014213
O        1.6223919372    2.7626836192    0.3526134373
H        2.7494504476   -0.2022961860   -0.4836832194
H        3.6391092125    2.3918900044    0.0770369209
H       -2.3045575375   -0.7795578966   -0.0215580889
H       -1.9973892706    0.7324034263   -0.9196522050
H       -1.8413274008    0.7378343592    0.8291883650
13   
Generated by ForceBalance from scan.xyz: Frame 22 of 24
C        2.2062710485    0.7017381748   -0.2294438551
C        2.6700624727    1.9406315289    0.0853793169
C        0.7951216642    0.8211750482   -0.0364918448
C       -0.2312651871   -0.2471062858   -0.2413022513
C       -1.6853284236    0.1220201145   -0.0619415966
N        0.4545912270    2.0340354446    0.3626571268
O        0.1354143517   -1.3643808639   -0.5772120897
O        1.6416875880    2.7502726194    0.4417445504
H        2.7515972341   -0.1735615204   -0.5498694770
H        3.6522919958    2.3934414614    0.1100763938
H       -2.2602390590   -0.7733895079    0.1797469592
H       -2.0549273208    0.5256934331   -1.0124802333
H       -1.8209192400    0.8995579996    0.6921591080
13   
Generated by ForceBalance from scan.xyz: Frame 23 of 24
C        2.2150770724    0.7171180904   -0.2411718409
C        2.6846735101    1.9396598117    0.1242295343
C        0.8044873245    0.8341491242   -0.0417789157
C       -0.2241285526   -0.2217642798   -0.2899099422
C       -1.6798042391    0.1258884777   -0.0711204998
N        0.4699110969    2.0312347753    0.4081058904
O        0.1391028741   -1.3202822267   -0.6865262993
O        1.6599332776    2.7382323715    0.5151137984
H        2.7560533542   -0.1464770403   -0.5985592433
H        3.6688050700    2.3870454419    0.1663797894
H       -2.1850152943   -0.7231874543    0.3948072649
H       -2.1398997324    0.2875400760   -1.0528707685
H       -1.8094018084    1.0329104184    0.5201896378
13   
Generated by ForceBalance from scan.xyz: Frame 24 of 24
C        2.2083183285    0.7153091729   -0.2575391533
C        2.6891556922    1.9152048122    0.1637606702
C        0.7977548014    0.8396199835   -0.0618777779
C       -0.2395069019   -0.1945669262   -0.3586603006
C       -1.6913481295    0.1350857751   -0.0861145607
N        0.4734590435    2.0210242151    0.4350727238
O        0.1143905675   -1.2740417297   -0.8120926193
O        1.6705367835    2.7085806686    0.5806795960
H        2.7419858769   -0.1384949238   -0.6479080942
H        3.6778982041    2.3491099281    0.2313763196
H       -2.0891516104   -0.6033253606    0.6167764790
H       -2.2525960127    0.0299470472   -1.0196111209
H       -1.8270540683    1.1389901394    0.3162761969
