39   

C        1.2307638114   -4.6073201068   -0.3278653119
C        2.3179501510   -3.2647119156    1.3426261096
C        0.7042838331    1.1875327103    1.4244392063
C        2.0626459514   -5.6832841790    0.0048884592
C        3.1309047771   -4.3516164332    1.6874609635
C       -0.0080792592    2.3580281802    1.7022718089
C       -1.4791423202    1.8803799698   -0.1289592699
C        1.3527189526   -3.3630866241    0.3240436340
C        0.3299782990    0.3422362164    0.3689911887
C       -0.7719016732    0.7029459229   -0.4275844857
C        3.0152623011   -5.5663404947    1.0125689181
C       -1.1094816983    2.7091096857    0.9263084911
C       -0.7445119999   -2.4227169325   -0.5765442597
C        0.5248826334   -2.1890954448   -0.0558720529
C        1.1433999936   -0.8482102778    0.0905892497
C        2.4015636298   -0.6031582889   -0.4540573826
C       -1.1815027745   -0.1267442296   -1.6109489970
C       -1.7528167692   -1.4498253507   -1.1335350076
C        3.8197895605   -0.7374119331    0.0752947803
O        3.8182787633   -6.6239476873    1.3268972173
O       -1.8121277996    3.8495224363    1.1846110364
H        0.5350800162   -4.7423943068   -1.1461012680
H        2.4174411950   -2.3412183157    1.8993682300
H        1.5638882898    0.9280932697    2.0313841191
H        1.9813674853   -6.6201732807   -0.5323980020
H        3.8515691611   -4.2392841971    2.4872089185
H        0.3067262014    2.9894654193    2.5234641712
H       -2.3326846544    2.1724179539   -0.7279632638
H       -1.0808522106   -3.4502271948   -0.6199242147
H        2.3709965004    0.2470189093   -1.1270240544
H       -1.9543878947    0.4049983089   -2.1746413899
H       -0.3372048899   -0.2946161237   -2.2869548450
H       -2.2360669090   -1.9392777813   -1.9849051644
H       -2.5325545914   -1.2643592750   -0.3870598280
H        3.8383784571   -0.5658254180    1.1551479420
H        4.4744950461   -0.0034965706   -0.4041123517
H        4.2067155400   -1.7384311874   -0.1367974185
H        4.4234497676   -6.3899199836    2.0500482676
H       -1.4261185123    4.3199307203    1.9422584441
39   

C        1.2414374758   -4.5866066945   -0.2580641831
C        2.3054434315   -3.1745719012    1.3699873573
C        0.6811947822    1.1614670066    1.4292390905
C        2.0508739267   -5.6542483664    0.1481633207
C        3.0961194266   -4.2523662637    1.7878760774
C       -0.0700705827    2.2934823048    1.7593160484
C       -1.5137651500    1.8627582808   -0.1073883395
C        1.3635068045   -3.3131922308    0.3346684712
C        0.3385270077    0.3611304567    0.3298401893
C       -0.7675897832    0.7240577430   -0.4562235099
C        2.9803900173   -5.4981943252    1.1719458962
C       -1.1773610512    2.6483245633    0.9922865423
C       -0.6982102078   -2.3903320353   -0.6710416131
C        0.5567378664   -2.1513510644   -0.1170832371
C        1.1734724134   -0.7982332567   -0.0000884784
C        2.3840404732   -0.5164295812   -0.5967094204
C       -1.1327867504   -0.0667040815   -1.6807309026
C       -1.6884531852   -1.4217223371   -1.2733500419
C        3.8073797990   -0.8948493298   -0.2367578486
O        3.7608603192   -6.5486319557    1.5587126213
O       -1.9181065518    3.7507520988    1.3036016792
H        0.5630528743   -4.7552203420   -1.0844864739
H        2.4034363002   -2.2250091572    1.8816316343
H        1.5435857376    0.8960490845    2.0297397436
H        1.9694557359   -6.6161100819   -0.3430672767
H        3.7991966312   -4.1087207427    2.5982020910
H        0.2183517596    2.8915519154    2.6145459680
H       -2.3718466352    2.1564967574   -0.6989187627
H       -1.0444510497   -3.4150650514   -0.6930100507
H        2.3819830487    0.4407863544   -1.1072466410
H       -1.8994596652    0.4727767447   -2.2455257994
H       -0.2668779961   -0.1917492415   -2.3383573619
H       -2.1075170654   -1.8992721464   -2.1644893065
H       -2.5167227447   -1.2753316071   -0.5718811121
H        3.9598234980   -0.8201323644    0.8433140756
H        4.5133244247   -0.2212024415   -0.7315578587
H        4.0179433999   -1.9181059403   -0.5618973101
H        4.3485575213   -6.2874075447    2.2869321683
H       -1.5562486250    4.1891770339    2.0918097642
39   

C        1.2306525637   -4.5514822742   -0.1989778371
C        2.3243109417   -3.0602097075    1.3365103690
C        0.6550361285    1.1197468633    1.4604669852
C        2.0116716550   -5.6090091697    0.2826112616
C        3.0879720541   -4.1262179041    1.8278509891
C       -0.1378995192    2.2000069054    1.8597849203
C       -1.5519811454    1.8513176588   -0.0487498651
C        1.3799001906   -3.2444277362    0.3094410239
C        0.3464894979    0.3888503261    0.3049072086
C       -0.7646479555    0.7644860721   -0.4647621724
C        2.9417858457   -5.4075611319    1.2977536876
C       -1.2510330682    2.5695701909    1.1069053035
C       -0.6420253208   -2.3319181197   -0.8035209559
C        0.5959214759   -2.0944772689   -0.2103866197
C        1.2018670247   -0.7290488780   -0.0973474485
C        2.3714002128   -0.4007209502   -0.7233489750
C       -1.0836634016    0.0375319874   -1.7418266946
C       -1.6124967722   -1.3569485253   -1.4345982531
C        3.7595811086   -0.9863811654   -0.5909691412
O        3.6933115785   -6.4488657458    1.7592630112
O       -2.0323960470    3.6209548227    1.4877287583
H        0.5503924774   -4.7630624696   -1.0134880554
H        2.4483873854   -2.0818114176    1.7845543049
H        1.5195344779    0.8394044608    2.0510766815
H        1.9060236935   -6.6000717274   -0.1414456356
H        3.7936681057   -3.9451908368    2.6284094920
H        0.1217559043    2.7456232540    2.7582708422
H       -2.4147336825    2.1549444174   -0.6282591206
H       -1.0018583864   -3.3515215405   -0.8206977327
H        2.4066928808    0.6219251221   -1.0837189836
H       -1.8477829834    0.5917474822   -2.2956712753
H       -0.1981098755   -0.0263616101   -2.3817754899
H       -1.9594036366   -1.8024166789   -2.3721043923
H       -2.4885942657   -1.2671537828   -0.7836471291
H        4.0702958349   -0.9991826099    0.4571697518
H        4.4768513086   -0.3826153574   -1.1548130265
H        3.7779528867   -2.0065724084   -0.9862561550
H        4.2822274402   -6.1545251929    2.4737678063
H       -1.6966525305    4.0095079548    2.3128468764
39   

C        1.2415169615   -4.5475047434   -0.1427020570
C        2.3468536984   -3.0066328166    1.3345298084
C        0.6604531789    1.0765246203    1.4681711454
C        1.9979057083   -5.5952775681    0.3963910484
C        3.0870374048   -4.0617771948    1.8816047403
C       -0.1602579075    2.1210712888    1.9047446479
C       -1.5566366134    1.8148081706   -0.0255322722
C        1.4081595455   -3.2209250422    0.3071531528
C        0.3734397123    0.3858336432    0.2830170079
C       -0.7418542318    0.7634052826   -0.4775985247
C        2.9218266719   -5.3635375766    1.4106880854
C       -1.2785168834    2.4934688887    1.1600757955
C       -0.5789710649   -2.3203472879   -0.8869708692
C        0.6453156932   -2.0810111907   -0.2662788395
C        1.2393202888   -0.7078861955   -0.1560251608
C        2.4100669962   -0.3605077898   -0.7494383112
C       -1.0306118089    0.0738790913   -1.7832109790
C       -1.5367719310   -1.3430158322   -1.5377943465
C        3.7218185669   -1.1062034279   -0.8010323597
O        3.6491323214   -6.3954765498    1.9285579284
O       -2.0875494895    3.5087859646    1.5790720926
H        0.5647228231   -4.7873342192   -0.9519973217
H        2.4879448230   -2.0111966324    1.7380627227
H        1.5264883141    0.7907765062    2.0539208339
H        1.8769000404   -6.6033612436    0.0190918188
H        3.7894839445   -3.8558454096    2.6790453428
H        0.0808331153    2.6356774889    2.8264408206
H       -2.4233184075    2.1199462736   -0.5982526580
H       -0.9465750367   -3.3369071718   -0.9004105241
H        2.5089541768    0.6925885331   -0.9902439293
H       -1.7946866143    0.6337964672   -2.3313172654
H       -0.1334578916    0.0493266947   -2.4095916921
H       -1.8352678770   -1.7679672317   -2.5011007577
H       -2.4412544430   -1.2889324901   -0.9227941836
H        4.1436925391   -1.2083853016    0.2024416507
H        4.4382260503   -0.5579728092   -1.4200005346
H        3.5779526343   -2.0996073284   -1.2368207132
H        4.2357881946   -6.0786463148    2.6352949676
H       -1.7693602851    3.8665541496    2.4248464795
39   

C        1.2434412001   -4.4908361228   -0.1573921335
C        2.3446229152   -2.9284803430    1.3003672469
C        0.6248866098    1.0999027863    1.4589617572
C        1.9912136779   -5.5318831600    0.4062574451
C        3.0769717959   -3.9765821099    1.8708487465
C       -0.2141576075    2.1203445873    1.9171363875
C       -1.6029062313    1.8334213016   -0.0224215755
C        1.4115078808   -3.1569176090    0.2702937321
C        0.3503139859    0.4316145809    0.2580817153
C       -0.7696599434    0.8062124538   -0.4957631665
C        2.9090249512   -5.2858724991    1.4226724511
C       -1.3378244340    2.4900325585    1.1788679144
C       -0.5614143093   -2.2688003302   -0.9613792981
C        0.6538854183   -2.0235532367   -0.3253322463
C        1.2261581487   -0.6428978940   -0.2049514004
C        2.4193218151   -0.2848782522   -0.7334402375
C       -1.0392525773    0.1403530771   -1.8182455389
C       -1.5211329682   -1.2924161130   -1.6130403521
C        3.6457043825   -1.1283670117   -0.9632045040
O        3.6279895960   -6.3113713447    1.9644139241
O       -2.1646700182    3.4815457901    1.6195449495
H        0.5709643612   -4.7440196707   -0.9660714560
H        2.4900214624   -1.9266437148    1.6862837440
H        1.4938216979    0.8145485773    2.0406092336
H        1.8677417032   -6.5462795794    0.0470840090
H        3.7756899078   -3.7589989668    2.6684977421
H        0.0165164090    2.6178624063    2.8508291699
H       -2.4734930170    2.1365588071   -0.5901976635
H       -0.9252191067   -3.2864379639   -0.9810593910
H        2.5766776005    0.7805327196   -0.8628882079
H       -1.8084443363    0.6998140162   -2.3595881873
H       -0.1370522226    0.1468353924   -2.4378739363
H       -1.7932314529   -1.7014864850   -2.5909124464
H       -2.4384252021   -1.2676327717   -1.0154315900
H        4.1522045218   -1.3345719760   -0.0164242748
H        4.3442980762   -0.5967302778   -1.6160579662
H        3.3778266777   -2.0734637103   -1.4452895211
H        4.2108823107   -5.9842777249    2.6696039557
H       -1.8545011034    3.8242599243    2.4745014507
39   

C        1.2507095420   -4.4801219237   -0.1452371129
C        2.3429452573   -2.9075338833    1.3082743416
C        0.6149864343    1.1034043469    1.4511355127
C        1.9924066455   -5.5176322923    0.4326832429
C        3.0695457705   -3.9520482832    1.8925544851
C       -0.2335871346    2.1138026848    1.9139334351
C       -1.6170605973    1.8261968696   -0.0296134560
C        1.4172898650   -3.1428464774    0.2726823847
C        0.3475379068    0.4398655843    0.2456986691
C       -0.7745345256    0.8085614071   -0.5070792657
C        2.9029496929   -5.2646911652    1.4538559241
C       -1.3593365030    2.4780777744    1.1759998833
C       -0.5470292903   -2.2640489216   -0.9798197594
C        0.6644920463   -2.0135086264   -0.3384912802
C        1.2265625299   -0.6297051992   -0.2222089154
C        2.4560990557   -0.2834620634   -0.6591222756
C       -1.0345988548    0.1465261119   -1.8335453254
C       -1.5066585341   -1.2913453806   -1.6381044917
C        3.6017059608   -1.1815321602   -1.0401860412
O        3.6164403879   -6.2867714777    2.0091151574
O       -2.1955938199    3.4594254028    1.6216343678
H        0.5840316439   -4.7393344777   -0.9567834317
H        2.4883668185   -1.9027818024    1.6865091381
H        1.4842088863    0.8209633116    2.0337910175
H        1.8698561325   -6.5347832077    0.0810425725
H        3.7630212179   -3.7289047368    2.6932409339
H       -0.0091211433    2.6072146691    2.8513262620
H       -2.4892747008    2.1250180102   -0.5971441600
H       -0.9100969905   -3.2819850940   -0.9956480226
H        2.6703412145    0.7793326473   -0.6911128188
H       -1.8050616787    0.7032455470   -2.3758801131
H       -0.1295033838    0.1625370338   -2.4488614191
H       -1.7668421228   -1.6987010469   -2.6199119609
H       -2.4296362458   -1.2753667734   -1.0490190884
H        4.1543179184   -1.4979809513   -0.1514007584
H        4.2911778706   -0.6422353066   -1.6964290341
H        3.2407599168   -2.0642411467   -1.5767772942
H        4.1952697949   -5.9546605538    2.7153075162
H       -1.8906829997    3.7982389383    2.4800363016
39   

C        1.2867962231   -4.4489335755   -0.1441695107
C        2.3654176783   -2.8760001310    1.3190215742
C        0.6300923695    1.1397269219    1.4377601554
C        2.0279214871   -5.4854602046    0.4360374844
C        3.0914855725   -3.9197349256    1.9055420513
C       -0.2235683742    2.1470264688    1.8977050602
C       -1.6060892354    1.8459430286   -0.0443726969
C        1.4467146326   -3.1118353740    0.2770749003
C        0.3661177881    0.4709289265    0.2338164914
C       -0.7585012804    0.8310528466   -0.5188271478
C        2.9314713557   -5.2319745778    1.4631552260
C       -1.3513416440    2.5031000833    1.1590233845
C       -0.5190409979   -2.2421316208   -0.9773145882
C        0.6925557208   -1.9848725729   -0.3385699529
C        1.2474666777   -0.5987596955   -0.2312019240
C        2.5156016120   -0.2750916368   -0.5591040231
C       -1.0154401951    0.1627516992   -1.8425892645
C       -1.4818757640   -1.2761094525   -1.6409424959
C        3.6001785020   -1.1780802486   -1.0773583548
O        3.6445647890   -6.2531834590    2.0205284900
O       -2.1926703214    3.4812376258    1.6021517742
H        0.6260784678   -4.7082550152   -0.9606003463
H        2.5056152665   -1.8719345170    1.7007927992
H        1.4996559962    0.8630945974    2.0227082909
H        1.9104766854   -6.5021992893    0.0814622983
H        3.7793821780   -3.6962986446    2.7109374619
H       -0.0017234328    2.6440569166    2.8338233715
H       -2.4801479071    2.1382120877   -0.6124490424
H       -0.8799858106   -3.2609693582   -0.9857442685
H        2.7739904986    0.7763699181   -0.4962044855
H       -1.7876779997    0.7143078131   -2.3876449653
H       -0.1098918928    0.1796072316   -2.4572835377
H       -1.7395952422   -1.6889501655   -2.6210969137
H       -2.4054364017   -1.2610834637   -1.0527363818
H        4.1812100031   -1.5952501416   -0.2503278669
H        4.2791251000   -0.6088835671   -1.7191494433
H        3.1766503451   -1.9950585470   -1.6695234663
H        4.2182310158   -5.9209354116    2.7308477215
H       -1.8893085537    3.8240360702    2.4595262255
39   

C        1.2648690417   -4.4553607898   -0.1510838008
C        2.3398218359   -2.8917389561    1.3244473490
C        0.6011435708    1.1433241764    1.4199425899
C        2.0081643030   -5.4949102416    0.4206603227
C        3.0679497849   -3.9387539838    1.9027038750
C       -0.2531317336    2.1531800501    1.8729070162
C       -1.6335172499    1.8397595121   -0.0682376187
C        1.4216584834   -3.1210128737    0.2801972041
C        0.3397750020    0.4671795677    0.2185930670
C       -0.7857172958    0.8216066167   -0.5353860463
C        2.9110440299   -5.2477359435    1.4497369898
C       -1.3797995805    2.5049019398    1.1308242715
C       -0.5522284895   -2.2537631449   -0.9601852077
C        0.6636874697   -1.9930439336   -0.3307286081
C        1.2206781028   -0.6073755438   -0.2402504962
C        2.5205051619   -0.3147035992   -0.4566651193
C       -1.0457088631    0.1410523636   -1.8518212980
C       -1.5159344567   -1.2935349505   -1.6308102399
C        3.5623845272   -1.1811952861   -1.1071506230
O        3.6262496206   -6.2718926910    1.9989418055
O       -2.2217391816    3.4855777555    1.5671400962
H        0.6052534339   -4.7092252351   -0.9702067587
H        2.4767388679   -1.8914692868    1.7167433430
H        1.4684098192    0.8701570873    2.0098933345
H        1.8930799706   -6.5089423976    0.0576599219
H        3.7547713732   -3.7204704682    2.7104122788
H       -0.0328336398    2.6552932801    2.8066846099
H       -2.5077026405    2.1275923029   -0.6383657986
H       -0.9145400220   -3.2722528204   -0.9567359982
H        2.8118193321    0.7179883044   -0.2992891078
H       -1.8175198237    0.6885657624   -2.4015211323
H       -0.1410014889    0.1481720990   -2.4679785382
H       -1.7790067191   -1.7174906469   -2.6047688174
H       -2.4368732969   -1.2688102300   -1.0388025352
H        4.1632045999   -1.6922420824   -0.3496817042
H        4.2289431000   -0.5646522141   -1.7173950924
H        3.0957251049   -1.9277893518   -1.7571404199
H        4.1991793674   -5.9441716017    2.7119418867
H       -1.9192702944    3.8337140025    2.4226777648
39   

C        1.2469435786   -4.4732733121   -0.1640807061
C        2.3196628879   -2.9293548581    1.3331042638
C        0.5825694148    1.1409789394    1.3942838684
C        1.9924058417   -5.5197687793    0.3916821203
C        3.0500299164   -3.9835714725    1.8954633010
C       -0.2696783416    2.1587167606    1.8327506306
C       -1.6410366432    1.8312571777   -0.1115574149
C        1.4016031529   -3.1445321567    0.2853575885
C        0.3271849890    0.4543178102    0.1962652660
C       -0.7955177007    0.8044740753   -0.5640587719
C        2.8957126674   -5.2860054420    1.4232829712
C       -1.3902713034    2.5082624933    1.0812011146
C       -0.5809447753   -2.2740678797   -0.9343162513
C        0.6408792531   -2.0122171541   -0.3162680211
C        1.2073580351   -0.6293784800   -0.2493445511
C        2.5313541953   -0.3726870207   -0.3491022739
C       -1.0597280442    0.1052093552   -1.8689862019
C       -1.5417558565   -1.3200103301   -1.6173749003
C        3.5565162665   -1.1625556930   -1.1145980325
O        3.6134865657   -6.3167297009    1.9566211013
O       -2.2301958425    3.4968364824    1.5033340905
H        0.5880075171   -4.7158401087   -0.9873010342
H        2.4529411209   -1.9363877530    1.7441075259
H        1.4431049987    0.8703231383    1.9950938915
H        1.8790741421   -6.5284725243    0.0135947912
H        3.7362282726   -3.7761058219    2.7065310334
H       -0.0526639611    2.6683697015    2.7632196660
H       -2.5123573985    2.1155155596   -0.6878140113
H       -0.9475563326   -3.2910081478   -0.9149246872
H        2.8426046829    0.6344382981   -0.0950468816
H       -1.8278404433    0.6486358791   -2.4278300621
H       -0.1551765990    0.0932020181   -2.4852930914
H       -1.8136652008   -1.7608314329   -2.5813553972
H       -2.4591017963   -1.2761614520   -1.0208539560
H        4.1713455047   -1.7530317527   -0.4293544864
H        4.2092664344   -0.4849871491   -1.6727927322
H        3.0705617113   -1.8381178326   -1.8253961011
H        4.1876271709   -5.9981620803    2.6727726966
H       -1.9300007673    3.8529596528    2.3563889897
39   

C        1.2328226398   -4.4941264740   -0.1466946942
C        2.3004984491   -2.9773207211    1.3808371914
C        0.5750316020    1.1352128567    1.3882656241
C        1.9783736816   -5.5501027281    0.3904404154
C        3.0309242066   -4.0412916262    1.9247062339
C       -0.2764495770    2.1624761429    1.8049136009
C       -1.6231281951    1.8233874698   -0.1532539840
C        1.3858340932   -3.1731454063    0.3259750981
C        0.3353305339    0.4385907505    0.1909970186
C       -0.7787118101    0.7860805253   -0.5837374202
C        2.8800006748   -5.3346285172    1.4272478250
C       -1.3835671302    2.5121424892    1.0346640951
C       -0.5981905946   -2.2933901885   -0.8787079595
C        0.6284346029   -2.0337317552   -0.2685954759
C        1.2152580444   -0.6581268831   -0.2331263238
C        2.5530117694   -0.4385905814   -0.2165196383
C       -1.0428157830    0.0643765130   -1.8752627676
C       -1.5467926829   -1.3457580359   -1.5867549414
C        3.5873489972   -1.1159534348   -1.0760158063
O        3.5993499449   -6.3740594119    1.9412242882
O       -2.2230597033    3.5097581994    1.4358585161
H        0.5767924840   -4.7209958673   -0.9768700961
H        2.4295797219   -1.9939924529    1.8150668249
H        1.4214758659    0.8655250346    2.0090357444
H        1.8673998492   -6.5514325512   -0.0074198091
H        3.7145139848   -3.8486045446    2.7415827366
H       -0.0697240802    2.6788266531    2.7340498162
H       -2.4870257676    2.1046777978   -0.7419914421
H       -0.9740514743   -3.3065808302   -0.8382918033
H        2.8710740250    0.5352510780    0.1377325027
H       -1.8007403194    0.6048249998   -2.4506458339
H       -0.1349462072    0.0242986625   -2.4854278192
H       -1.8241485109   -1.8082915120   -2.5389221560
H       -2.4637442790   -1.2734681470   -0.9923147325
H        4.2066434419   -1.7812277224   -0.4674673828
H        4.2317589340   -0.3688217325   -1.5484783491
H        3.1045826832   -1.7066284020   -1.8607439770
H        4.1759334414   -6.0673496883    2.6605649147
H       -1.9322845727    3.8722269746    2.2895171344
39   

C        1.1950864568   -4.5107840886   -0.1146968752
C        2.2625133837   -3.0192371388    1.4370926584
C        0.5598723990    1.1496627496    1.3527961610
C        1.9416450457   -5.5752872418    0.4035591319
C        2.9940349942   -4.0920004417    1.9622537700
C       -0.2840679508    2.1972381355    1.7316230965
C       -1.6002682309    1.8327956008   -0.2408527471
C        1.3491973137   -3.1970041853    0.3775788370
C        0.3369998925    0.4311749968    0.1630499567
C       -0.7637068256    0.7739397756   -0.6333316016
C        2.8449577725   -5.3765603794    1.4420311977
C       -1.3709346440    2.5461204687    0.9339984096
C       -0.6354782783   -2.3082538210   -0.8120693203
C        0.5981732881   -2.0510091620   -0.2145758759
C        1.2123121637   -0.6873709240   -0.2253971645
C        2.5565712203   -0.5052566544   -0.1067887229
C       -1.0327592574    0.0139155508   -1.9003232424
C       -1.5682495122   -1.3709657018   -1.5535705526
C        3.6218125278   -1.0369009739   -1.0329322893
O        3.5680505356   -6.4234317214    1.9352561931
O       -2.2030694747    3.5637697090    1.2985099306
H        0.5398095919   -4.7227134467   -0.9496271319
H        2.3894705108   -2.0447711479    1.8910301449
H        1.3853922678    0.8831694958    2.0021372371
H        1.8316996044   -6.5694825598   -0.0120766381
H        3.6776445076   -3.9130153612    2.7822007442
H       -0.0876472416    2.7294253028    2.6540642931
H       -2.4526930908    2.1096785468   -0.8480804797
H       -1.0238305346   -3.3153754964   -0.7415090161
H        2.8702377540    0.4265978849    0.3480790007
H       -1.7774141127    0.5470985291   -2.4993051825
H       -0.1228477233   -0.0692497445   -2.5029775825
H       -1.8591123871   -1.8657617789   -2.4852374063
H       -2.4810954149   -1.2549842315   -0.9596024304
H        4.2443817549   -1.7670543350   -0.5077596806
H        4.2563973480   -0.2200921821   -1.3890215739
H        3.1628542761   -1.5268523332   -1.8971587028
H        4.1527586607   -6.1266332913    2.6521688553
H       -1.9211879144    3.9417625220    2.1484364346
39   

C        1.1581121864   -4.5244976485   -0.0989967117
C        2.2358474000   -3.0532314931    1.4646105936
C        0.5523240626    1.1533822362    1.3133844345
C        1.9050206513   -5.5965400555    0.4025350825
C        2.9678849360   -4.1337933978    1.9732588794
C       -0.2838721783    2.2166920464    1.6636544601
C       -1.5759479952    1.8370181839   -0.3198107569
C        1.3187094171   -3.2161897557    0.4058706461
C        0.3433836460    0.4202509799    0.1277431504
C       -0.7474379921    0.7615232229   -0.6838442621
C        2.8148460573   -5.4116101568    1.4376654827
C       -1.3533378806    2.5675611811    0.8450841729
C       -0.6673880756   -2.3173288608   -0.7672483582
C        0.5744903895   -2.0642095352   -0.1846221240
C        1.2136119653   -0.7142019865   -0.2399069068
C        2.5614861687   -0.5563703900   -0.0514792858
C       -1.0248999479   -0.0274265701   -1.9301342719
C       -1.5867851942   -1.3889468385   -1.5359407092
C        3.6721392449   -0.8851878383   -1.0220480445
O        3.5408708209   -6.4650500675    1.9122649172
O       -2.1775787884    3.6009427998    1.1822213660
H        0.4993547108   -4.7242245506   -0.9343922868
H        2.3660514728   -2.0853390495    1.9310868317
H        1.3568278970    0.8898764362    1.9889290538
H        1.7916296260   -6.5852039166   -0.0252092759
H        3.6558768987   -3.9661719631    2.7919166548
H       -0.0953671541    2.7590598722    2.5818413781
H       -2.4192975692    2.1116790743   -0.9405287358
H       -1.0684737661   -3.3172563999   -0.6678052516
H        2.8720325764    0.2667884874    0.5785065213
H       -1.7595404171    0.5002923812   -2.5460554458
H       -0.1155641721   -0.1463188572   -2.5275626710
H       -1.8903277062   -1.9092021270   -2.4494775457
H       -2.4950333809   -1.2362032129   -0.9431160564
H        4.5724913373   -0.3113382173   -0.7837851144
H        3.3603046420   -0.6448581127   -2.0427354957
H        3.9090066271   -1.9520203732   -0.9698546022
H        4.1378018152   -6.1759418850    2.6221850444
H       -1.9011288640    3.9901633763    2.0288846261
39   

C        1.1030235907   -4.5608004966   -0.0371778290
C        2.2271043980   -3.0719784613    1.4759680833
C        0.5830390286    1.1272156106    1.2545001254
C        1.8334686861   -5.6346753998    0.4841438303
C        2.9428136349   -4.1539722803    2.0047617250
C       -0.2490066425    2.1964735537    1.5954051038
C       -1.5335155033    1.8136331386   -0.3910404289
C        1.2952240176   -3.2431004481    0.4315689405
C        0.3784521081    0.3885580368    0.0697843828
C       -0.7099518827    0.7307826434   -0.7450309752
C        2.7583078457   -5.4417949127    1.5042300895
C       -1.3119760099    2.5495331474    0.7704026439
C       -0.6803812716   -2.3379585757   -0.7548878557
C        0.5689595267   -2.0927535384   -0.1840229951
C        1.2388453049   -0.7599312932   -0.2887327245
C        2.5933197107   -0.6050998287   -0.0853803012
C       -0.9966758645   -0.0733952764   -1.9785819085
C       -1.5805064228   -1.4171561125   -1.5555615550
C        3.7405458128   -0.6805706979   -1.0726426627
O        3.4684195711   -6.4972714156    1.9980452933
O       -2.1330480941    3.5877130793    1.1004028779
H        0.4320084205   -4.7690695096   -0.8606305467
H        2.3815571188   -2.0964843262    1.9177731684
H        1.3757833542    0.8658243501    1.9437470521
H        1.6955698918   -6.6314111398    0.0831620067
H        3.6429994491   -3.9796546794    2.8115820943
H       -0.0630800777    2.7406984622    2.5130718576
H       -2.3745772731    2.0875376953   -1.0151187487
H       -1.1035019323   -3.3244842631   -0.6193623223
H        2.8776486640    0.0951747674    0.6872827836
H       -1.7220438150    0.4541223539   -2.6055422642
H       -0.0880988157   -0.2183337869   -2.5713280012
H       -1.8847027161   -1.9559599790   -2.4580248077
H       -2.4908211375   -1.2370095826   -0.9736376624
H        4.5895107088   -0.0853398432   -0.7232954280
H        3.4198269643   -0.3000563974   -2.0469558940
H        4.0612266589   -1.7200310062   -1.1895523643
H        4.0822005173   -6.2015970061    2.6906539864
H       -1.8611840798    3.9755760882    1.9492226661
