43

C     -1.33793   -6.50576   -0.05581
C     -1.14369   -5.11386   -0.16604
C     -0.21757   -7.01207    0.59434
C      0.09387   -4.79263    0.40995
C      0.67980   -3.45118    0.46466
C      1.89964   -6.21134    1.59204
C     -2.52329   -0.89139   -0.68765
C     -1.19931    0.92575   -1.63575
C      0.23690   -0.77896    2.62552
C      0.33871    1.34130    1.37585
C      1.52000   -1.03384   -2.40127
C      2.70646   -0.06740   -0.48835
N     -0.20810   -2.49524    0.11429
N      0.64792   -5.98944    0.87263
N     -1.18389   -0.40818   -1.03741
N      0.25598   -0.11530    1.32263
N      1.41101   -0.44447   -1.06023
P      0.12250   -0.94364   -0.11782
S      2.30120   -3.16030    0.90592
H     -2.18318   -7.08496   -0.40490
H     -1.79796   -4.38717   -0.62511
H      0.02369   -8.02624    0.88466
H      2.75974   -5.99667    0.95727
H      1.96118   -5.56632    2.46922
H      1.91891   -7.25797    1.90574
H     -2.45749   -1.91071   -0.31143
H     -3.15140   -0.88322   -1.58578
H     -3.00013   -0.25390    0.07279
H     -0.18743    1.23774   -1.89543
H     -1.64531    1.67812   -0.96730
H     -1.79652    0.89728   -2.55474
H      0.02459   -1.83914    2.50630
H     -0.54363   -0.33251    3.25554
H      1.20684   -0.67652    3.12740
H      0.49111    1.76061    0.38087
H      1.18748    1.65074    1.99958
H     -0.57675    1.77515    1.80129
H      0.52882   -1.26169   -2.79561
H      2.11267   -1.95730   -2.37486
H      2.00672   -0.31764   -3.07345
H      2.60728    0.14822    0.57373
H      3.08042    0.82595   -1.00584
H      3.42888   -0.88323   -0.58998
