48

C      4.02073   -2.78442   -1.12564
C      5.40915   -1.67110    0.50271
C      2.80649   -1.15315    1.97559
C      1.86709   -0.84314   -0.22382
C      5.15255   -3.36586   -1.69910
C      6.54742   -2.25231   -0.05536
C      1.67256   -0.57338    2.54603
C      0.73147   -0.25478    0.33219
C      6.58091   -2.93213   -5.28424
C      8.90478   -3.63195   -5.39374
C     -0.99432   -2.23481    4.79864
C     -3.06421   -0.96541    4.88453
C      6.29821   -3.67742   -6.43182
C      8.62339   -4.38454   -6.53555
C     -0.99055   -2.33008    6.19265
C     -3.05874   -1.05168    6.27799
C      4.12735   -1.92450   -0.01906
C      2.92397   -1.30259    0.58308
C      6.40839   -3.09808   -1.15599
C      0.64419   -0.12437    1.71836
C      7.88024   -2.91164   -4.77794
C     -2.03142   -1.55835    4.15700
C      7.32235   -4.40075   -7.04572
C     -2.02178   -1.73372    6.92064
O      7.50213   -3.75888   -1.73306
O     -0.43914    0.50389    2.34878
O      8.10973   -2.09604   -3.66363
O     -2.01137   -1.54973    2.75725
S      8.77454   -2.81677   -2.29497
S     -1.98445   -0.04938    1.99279
Cl     6.97098   -5.34727   -8.48289
Cl    -2.01658   -1.84113    8.67365
H      3.04071   -3.02082   -1.53054
H      5.52141   -0.99072    1.34213
H      3.59431   -1.52495    2.62479
H      1.94779   -0.91579   -1.30478
H      5.07647   -4.03816   -2.54849
H      7.53378   -2.03972    0.34598
H      1.57018   -0.46596    3.62175
H     -0.07535    0.10263   -0.30041
H      5.80711   -2.36127   -4.78028
H      9.90931   -3.61107   -4.98254
H     -0.20545   -2.68349    4.20280
H     -3.85999   -0.43669    4.36882
H      5.29289   -3.70105   -6.84011
H      9.40824   -4.94910   -7.02864
H     -0.19255   -2.85586    6.70712
H     -3.85479   -0.59846    6.86001
