25

C      5.11188    1.49193   -4.98998
C      4.16757    0.83102   -4.25506
C      5.70202   -0.76277   -4.30191
C      2.78649    1.71689   -2.35386
C      1.33641    2.09507   -0.52662
C      8.47152   -2.74775   -5.51370
C      2.83435    1.37259   -3.83783
N      4.50966   -0.45576   -3.87983
N      6.33872   -1.97669   -3.99693
O      3.74560    1.97455   -1.65681
O      6.57897   -4.40842   -4.64969
O      6.01060   -2.72419   -6.49318
O      1.50641    1.73489   -1.91481
S      6.52455    0.50096   -5.19224
S      6.72217   -3.09130   -5.27097
H      5.06318    2.48520   -5.41632
H      0.26205    2.06002   -0.34749
H      1.72668    3.09886   -0.34306
H      1.85888    1.38269    0.11570
H      8.81771   -3.43793   -6.28522
H      8.58233   -1.71611   -5.84904
H      8.98851   -2.91999   -4.57022
H      2.60332    2.28945   -4.39003
H      2.04008    0.65502   -4.05901
H      5.81950   -2.49120   -3.28325
