48

C      4.88893   -1.97648   -1.78425
C      4.98953   -3.37573    0.17275
C      3.03857   -1.49055    1.45139
C      2.14199   -1.23499   -0.77112
C      5.85783   -2.76729   -2.40361
C      5.97395   -4.15831   -0.42289
C      1.84263   -1.02034    1.99165
C      0.94460   -0.75283   -0.24556
C      3.95549   -6.86113   -1.06581
C      3.44925   -5.15354   -2.71366
C     -0.30174   -3.40395    3.79017
C     -2.47846   -2.38488    4.15205
C      2.88405   -6.42204   -0.28308
C      2.37693   -4.71557   -1.93591
C     -0.19663   -3.67215    5.15703
C     -2.37115   -2.64405    5.52004
C      4.39431   -2.29967   -0.50931
C      3.20201   -1.63447    0.06314
C      6.35469   -3.88682   -1.73686
C      0.79724   -0.67048    1.13822
C      4.24693   -6.20340   -2.26122
C     -1.44232   -2.76812    3.29991
C      2.11505   -5.33778   -0.71411
C     -1.23146   -3.28631    6.01124
O      7.18435   -4.74404   -2.48019
O     -0.38617   -0.22652    1.74540
O      5.35098   -6.56098   -3.05511
O     -1.50687   -2.58764    1.91270
S      6.86876   -6.39561   -2.33559
S     -1.80200   -1.03726    1.32994
Cl     0.81847   -4.72114    0.29618
Cl    -1.09870   -3.61199    7.73245
H      4.48876   -1.11900   -2.31792
H      4.62427   -3.65817    1.15500
H      3.85115   -1.75635    2.12136
H      2.23566   -1.34510   -1.84746
H      6.19392   -2.55996   -3.41512
H      6.36916   -5.02709    0.09193
H      1.70158   -0.92979    3.06440
H      0.11859   -0.48636   -0.89784
H      4.57742   -7.68645   -0.73280
H      3.69894   -4.66024   -3.64696
H      0.48718   -3.68431    3.09943
H     -3.35477   -1.88246    3.75434
H      2.65618   -6.91090    0.65887
H      1.76789   -3.87849   -2.25873
H      0.68250   -4.16911    5.55476
H     -3.16774   -2.35486    6.19803
