24

C      4.06293    0.92568   -5.72833
C      3.67797    0.31071   -4.57200
C      5.47516   -0.98182   -4.94212
C      2.82609    1.01966   -2.29541
C      4.35501    2.09395   -0.85883
C      6.34133   -2.23643   -2.13191
C      2.48558    0.69714   -3.74022
N      4.44753   -0.74252   -4.13355
N      6.47967   -1.86173   -4.87427
O      2.18514    0.65357   -1.32545
O      7.73379   -3.73834   -3.79798
O      5.21630   -3.90675   -3.85122
O      3.92138    1.81005   -2.19687
S      5.50405    0.14890   -6.35604
S      6.42337   -3.05393   -3.75604
H      3.60877    1.77899   -6.21594
H      5.25634    2.69889   -0.96649
H      4.58054    1.16569   -0.32757
H      3.58583    2.64288   -0.30724
H      6.34426   -3.02919   -1.38029
H      7.22543   -1.60393   -2.02903
H      5.42343   -1.65017   -2.09231
H      1.99753    1.57857   -4.17245
H      1.75235   -0.11320   -3.70366
