48

C      3.84365   -2.02480   -1.27203
C      4.80737   -3.19027    0.60420
C      2.12058   -2.72217    1.93994
C      2.16981   -0.59079    0.81804
C      4.87636   -2.47197   -2.09662
C      5.85027   -3.63938   -0.20627
C      1.08097   -2.27520    2.75377
C      1.13337   -0.12336    1.62906
C      9.52245   -2.33214   -0.43799
C     10.80858   -2.57809   -2.48544
C     -1.48825    3.35816    5.03770
C      0.54827    2.04208    5.21756
C     10.62384   -2.75915    0.30833
C     11.90935   -3.01028   -1.74333
C     -1.28292    3.85684    6.32608
C      0.75449    2.53686    6.50743
C      3.78660   -2.37239    0.08945
C      2.68356   -1.89129    0.95440
C      5.87582   -3.27988   -1.55422
C      0.58999   -0.97817    2.58995
C      9.62625   -2.24084   -1.82565
C     -0.57146    2.45761    4.49490
C     11.80691   -3.09665   -0.35200
C     -0.16338    3.43907    7.05016
O      6.92905   -3.81970   -2.30703
O     -0.41845   -0.59555    3.48369
O      8.52042   -1.75173   -2.53034
O     -0.74832    2.00085    3.18401
S      7.67053   -2.86492   -3.46984
S     -1.56442    0.52771    3.00718
Cl    13.19229   -3.63876    0.58147
Cl     0.09606    4.06262    8.67110
H      3.05074   -1.42053   -1.70386
H      4.80700   -3.45234    1.65860
H      2.47457   -3.74342    2.04943
H      2.61013    0.08569    0.09082
H      4.90383   -2.19766   -3.14626
H      6.64761   -4.26167    0.18918
H      0.63366   -2.92027    3.50415
H      0.77052    0.89319    1.52580
H      8.58689   -2.06523    0.04392
H     10.86554   -2.50398   -3.56739
H     -2.35006    3.66586    4.45298
H      1.24674    1.34115    4.77220
H     10.56273   -2.83295    1.38941
H     12.83879   -3.27321   -2.23812
H     -1.98330    4.56100    6.76360
H      1.61899    2.22560    7.08500
