48

C      4.45559   -1.70964   -2.51365
C      5.20634   -2.87362   -0.54119
C      3.21839   -1.10148    0.90540
C      1.80467   -1.47573   -1.01645
C      5.60521   -2.11351   -3.19332
C      6.34972   -3.30021   -1.21305
C      2.12646   -0.60389    1.61746
C      0.70622   -0.97791   -0.31564
C      7.60283   -0.08507   -1.15562
C      9.02361   -1.40850    0.30320
C      0.81601   -1.69834    5.05130
C     -1.39423   -0.72109    5.29548
C      6.87490    0.35973   -0.05052
C      8.30073   -0.96372    1.41208
C      1.16843   -1.23007    6.31940
C     -1.04150   -0.24476    6.55980
C      4.24881   -2.05690   -1.16842
C      3.07637   -1.54788   -0.41969
C      6.55769   -2.88560   -2.52923
C      0.87875   -0.54355    0.99890
C      8.65793   -0.97790   -0.97238
C     -0.46130   -1.44430    4.55101
C      7.22647   -0.09137    1.22309
C      0.23650   -0.50298    7.06227
O      7.72534   -3.17192   -3.25588
O     -0.17833    0.01807    1.72930
O      9.33853   -1.43379   -2.11246
O     -0.75771   -1.99765    3.29966
S      9.19145   -3.08451   -2.43572
S     -1.45229   -1.00125    2.13512
Cl     6.29856    0.44422    2.61791
Cl     0.67689    0.09834    8.65279
H      3.73942   -1.06830   -3.01996
H      5.05213   -3.18591    0.48761
H      4.19541   -1.11532    1.37805
H      1.66767   -1.83452   -2.03286
H      5.79651   -1.80300   -4.21608
H      7.09141   -3.90818   -0.70639
H      2.23240   -0.24371    2.63630
H     -0.27709   -0.93616   -0.77514
H      7.33347    0.22444   -2.15966
H      9.85346   -2.09758    0.42724
H      1.51841   -2.26371    4.44669
H     -2.38159   -0.52313    4.89052
H      6.03246    1.03095   -0.18085
H      8.56777   -1.29203    2.41147
H      2.15804   -1.42157    6.72177
H     -1.75545    0.31830    7.15238
