29   

C        2.3210164907   -3.3683613476    0.4933965783
C        3.1976003415   -2.5956854118    1.2576849908
C        0.9434949842   -3.2426682936    0.6824781836
C        2.6974110174   -1.7147395468    2.2231506994
C        0.4424535683   -2.3604965522    1.6459868703
C       -0.1666356304   -3.4818370907    5.7579209969
C        0.4176578048   -4.7307166241    5.9806379531
C       -1.1061349432   -4.3128287603    3.6989248362
C        1.3108384069   -1.6114618286    2.4591259217
C       -0.9222617759   -3.2565059715    4.6034331496
C        0.2547934155   -5.7775570961    5.0648557004
C       -0.5202200709   -5.5660870725    3.9102348806
C        0.8672672910   -0.6482524085    3.4698439638
C       -0.3002261262   -0.4753195610    4.1185626354
O       -2.5074648825   -1.6575576163    3.0722395735
O       -2.4737642356   -1.2178414385    5.4662355668
S       -1.6861928846   -1.6294922553    4.2941642115
Cl       1.0107434738   -7.3245948280    5.3779460563
Cl      -0.7649946285   -6.8393070431    2.7341608829
H        2.7069335706   -4.0528189939   -0.2539450221
H        4.2672805850   -2.6785929716    1.1013469624
H        0.2583862808   -3.8197736882    0.0714181832
H        3.3996522179   -1.1244060109    2.8011626948
H       -0.6291202289   -2.2514197318    1.7162464321
H       -0.0347787256   -2.6854475407    6.4853268347
H        1.0053790981   -4.8971667089    6.8755509969
H       -1.7148806350   -4.1655209845    2.8111524630
H        1.6244291695    0.0770451160    3.7499259151
H       -0.4414012608    0.4227531780    4.7007615820
29   

C        2.1688852114   -3.5492166258    0.6785374122
C        3.0575064519   -2.9042573413    1.5423864776
C        0.8158921914   -3.2025991232    0.6900109386
C        2.5900918421   -1.9283867277    2.4300300133
C        0.3477516091   -2.2269666741    1.5769089412
C       -0.1015359744   -3.4279892435    5.7143451734
C        0.5581005136   -4.6456869545    5.8973560604
C       -0.9750962142   -4.2422045722    3.6202628380
C        1.2209392305   -1.6029353583    2.4840970223
C       -0.8613371702   -3.2088599524    4.5616273621
C        0.4677519404   -5.6665629222    4.9427285358
C       -0.3127314337   -5.4627767976    3.7906441286
C        0.7885850688   -0.5637590292    3.4267177528
C       -0.3743241938   -0.4020685206    4.0822573255
O       -2.5491043060   -1.6699060388    3.0821042741
O       -2.4813874741   -1.2446355698    5.4808386848
S       -1.7049288685   -1.6150986196    4.2876020723
Cl       1.3216127386   -7.1717345928    5.2035195955
Cl      -0.4662942807   -6.7029513289    2.5648363260
H        2.5293957522   -4.3078409514   -0.0073668846
H        4.1106115327   -3.1614299747    1.5245550062
H        0.1275189643   -3.6831508842    0.0036882018
H        3.2959667317   -1.4395533886    3.0922021294
H       -0.6967772362   -1.9466323289    1.5290646689
H       -0.0222748284   -2.6499704312    6.4687498087
H        1.1505072182   -4.8071644750    6.7900073532
H       -1.5823825251   -4.0982663650    2.7310157828
H        1.5469373396    0.1754375029    3.6641264145
H       -0.5447686393    0.5072079953    4.6384377653
29   

C        1.9563235848   -3.7056867764    0.8256217770
C        2.8097785243   -3.2500136986    1.8343495193
C        0.7041246003   -3.1099986735    0.6532394296
C        2.4073416923   -2.2072085649    2.6767166036
C        0.2991900513   -2.0710761713    1.4983852741
C       -0.0810404048   -3.3898104613    5.6875034207
C        0.6505562737   -4.5692002495    5.8485367636
C       -0.8608606575   -4.1930771603    3.5526979456
C        1.1372304989   -1.6222771799    2.5329554373
C       -0.8283135680   -3.1824237569    4.5244046651
C        0.6446705187   -5.5632601093    4.8617441565
C       -0.1267532345   -5.3747709850    3.7012384784
C        0.7369044206   -0.5324933946    3.4406843584
C       -0.4296955076   -0.3681635046    4.0831935455
O       -2.5427651143   -1.6869676836    3.0291241847
O       -2.5381406421   -1.2858109738    5.4386047018
S       -1.7296435903   -1.6184710747    4.2553827998
Cl       1.5946474599   -7.0149524038    5.0912163641
Cl      -0.1747632989   -6.5824171079    2.4348428699
H        2.2664673498   -4.5156699064    0.1747139450
H        3.7841499166   -3.7072022379    1.9646777817
H        0.0446476100   -3.4511127109   -0.1370643629
H        3.0795998422   -1.8668853063    3.4562946848
H       -0.6688301113   -1.6083556182    1.3372920611
H       -0.0615137471   -2.6291976210    6.4632244019
H        1.2367121250   -4.7198814082    6.7471619823
H       -1.4522960390   -4.0558280390    2.6518023136
H        1.5122300029    0.1906250395    3.6725351128
H       -0.6197875356    0.5391302305    4.6359640856
29   

C        1.8495318327   -3.7446821811    0.8875540800
C        2.6276662572   -3.3923110849    1.9942624391
C        0.6961073318   -3.0143856311    0.5874517416
C        2.2526323354   -2.3112453346    2.8003170364
C        0.3183305423   -1.9372497348    1.3965350188
C       -0.0750349364   -3.3649126230    5.6567054652
C        0.6766465281   -4.5306482479    5.8257989119
C       -0.7968899998   -4.1710827263    3.5023699515
C        1.0907881315   -1.5767877120    2.5123706319
C       -0.8041439366   -3.1659478802    4.4804318971
C        0.7068065404   -5.5206082999    4.8353772088
C       -0.0468161412   -5.3416733677    3.6617503313
C        0.6919943487   -0.4564548508    3.3922654672
C       -0.4509102876   -0.3416796510    4.0807140972
O       -2.4997991764   -1.6887386386    2.9451976050
O       -2.5819624088   -1.3149744382    5.3599673348
S       -1.7301480712   -1.6179410080    4.1992647787
Cl       1.6801054284   -6.9549833338    5.0760095620
Cl      -0.0525445203   -6.5476599386    2.3927331259
H        2.1380335080   -4.5843075305    0.2648563072
H        3.5201385748   -3.9608632838    2.2300740752
H        0.0899009700   -3.2836271326   -0.2703726760
H        2.8604501196   -2.0531270550    3.6601377449
H       -0.5815170178   -1.3797906813    1.1551093017
H       -0.0841711740   -2.6078406622    6.4360357351
H        1.2497609615   -4.6742107217    6.7340107320
H       -1.3695457688   -4.0375814325    2.5888258844
H        1.4491705498    0.2996637581    3.5730882247
H       -0.6486230113    0.5417912689    4.6681711247
29   

C        2.0861235746   -3.1997502636    0.8068886472
C        2.3650670393   -3.9905692042    1.9258413982
C        1.8308987809   -1.8343008971    0.9657569306
C        2.3931614368   -3.4154900668    3.2016116832
C        1.8573928130   -1.2604333827    2.2415705552
C       -0.8250962655   -3.9154601709    4.9263385266
C       -0.9390851000   -5.1896168368    4.3636607280
C       -1.0248210884   -2.9514574396    2.7252711542
C        2.1472752585   -2.0436623913    3.3688127183
C       -0.8480126289   -2.7829472545    4.1064250742
C       -1.0910882798   -5.3578477955    2.9814478507
C       -1.1438802374   -4.2230479374    2.1526517531
C        2.1380856025   -1.4559277123    4.7318931350
C        1.0608777457   -1.0821932333    5.4302754968
O       -0.8103422723   -0.0838468565    3.7618677312
O       -1.5530500441   -0.9129544927    5.9397507282
S       -0.6372348483   -1.1094864714    4.8050615833
Cl      -1.2095396874   -6.9715879854    2.3146679534
Cl      -1.3418175404   -4.3725043425    0.4195634504
H        2.0592784676   -3.6460138645   -0.1810916158
H        2.5518378307   -5.0516191060    1.8047817006
H        1.6055908443   -1.2191859398    0.1016603783
H        2.5981000196   -4.0400460538    4.0637355098
H        1.6422879826   -0.2026530318    2.3585115455
H       -0.7099148369   -3.8059340833    6.0012070757
H       -0.9085337726   -6.0646056170    5.0020208388
H       -1.0556095025   -2.0805099007    2.0764328755
H        3.0927857945   -1.4333683418    5.2474198386
H        1.1603869108   -0.7203880014    6.4421129114
29   

C        2.1019519468   -3.2790875944    0.8610011084
C        2.2735712635   -4.0141014231    2.0381056532
C        1.9422322773   -1.8913626945    0.9239396916
C        2.2877670053   -3.3612636486    3.2760795398
C        1.9595770774   -1.2395072271    2.1620707962
C       -0.8012476155   -3.9511408148    4.9169442883
C       -0.9101012347   -5.2081280518    4.3151885626
C       -1.0270309224   -2.9205009373    2.7483406661
C        2.1401816937   -1.9678322427    3.3463124774
C       -0.8402473833   -2.7936983436    4.1328098600
C       -1.0743857132   -5.3341231821    2.9297401819
C       -1.1434315110   -4.1743972141    2.1374323084
C        2.1264060470   -1.2895134311    4.6700026622
C        1.0602188145   -1.0368348903    5.4342764506
O       -0.9253040366   -0.0893408071    3.8810288512
O       -1.5327535086   -1.0175424123    6.0587398374
S       -0.6597527076   -1.1381783916    4.8803558756
Cl      -1.1878147931   -6.9268825497    2.2134716301
Cl      -1.3585152299   -4.2709144480    0.4025995807
H        2.0834838698   -3.7853178714   -0.0978431206
H        2.3858975300   -5.0914003060    1.9915203641
H        1.7991469827   -1.3195690903    0.0138181694
H        2.4090064531   -3.9406282801    4.1843535179
H        1.8200668548   -0.1640127804    2.2055479476
H       -0.6810850491   -3.8742389584    5.9941685461
H       -0.8681298936   -6.1026774385    4.9252314201
H       -1.0710086449   -2.0298577317    2.1275008552
H        3.0994176579   -1.0483194633    5.0857960654
H        1.1827932343   -0.6718253374    6.4424391894
29   

C        2.7838473339   -4.2980027567    2.0021472565
C        3.1437938849   -4.1044688246    3.3391843569
C        2.0422764970   -3.3191577967    1.3342872450
C        2.7582741725   -2.9364868623    4.0068926939
C        1.6602738548   -2.1513032935    2.0039479662
C       -0.3998579729   -4.1792626728    3.9959604889
C       -0.7783535769   -4.8746074423    2.8471179103
C       -1.7270802794   -2.2984954836    3.2783379784
C        2.0025143710   -1.9545791265    3.3505991127
C       -0.8582700578   -2.8755423157    4.2144693573
C       -1.6195227763   -4.2878691577    1.8954462622
C       -2.1046273067   -2.9850998601    2.1162965018
C        1.6164645780   -0.7049149725    4.0536402430
C        0.6689720958   -0.5680780713    4.9868592657
O       -1.4481063027   -1.3773701747    6.3997780510
O        0.5564484033   -2.7739392464    6.5353042258
S       -0.2962376440   -1.9355351373    5.6746099525
Cl      -2.0421465243   -5.1818261389    0.4515639859
Cl      -3.1578700881   -2.2033988324    0.9574744819
H        3.0815349193   -5.2026568879    1.4837042941
H        3.7227215672   -4.8579417155    3.8615580994
H        1.7612601732   -3.4641299785    0.2971434386
H        3.0385905529   -2.7959225464    5.0463797770
H        1.0844099644   -1.3991870967    1.4761381651
H        0.2698145004   -4.6464515487    4.7137267351
H       -0.4049935450   -5.8782528853    2.6829600354
H       -2.1060470018   -1.2940850492    3.4417345568
H        2.0802281017    0.2059213887    3.6888048627
H        0.4288671114    0.4029773937    5.3919605311
29   

C        2.8415045934   -4.2881316964    2.0192366467
C        3.0648874040   -4.1118185180    3.3876944647
C        2.2003843370   -3.2856265813    1.2861156899
C        2.6400282118   -2.9390194823    4.0219433503
C        1.7817087368   -2.1111697981    1.9215271847
C       -0.4136773472   -4.1907516877    3.9916609192
C       -0.8054758512   -4.8708587111    2.8381584408
C       -1.7315191371   -2.2929003462    3.3033105234
C        1.9831324431   -1.9310626064    3.2986739001
C       -0.8593255390   -2.8855245044    4.2261856070
C       -1.6503544216   -4.2683049971    1.8996344485
C       -2.1245595244   -2.9647586599    2.1382031037
C        1.5350846803   -0.6883072074    3.9660982485
C        0.6707270690   -0.5830064508    4.9832800024
O       -1.4145296689   -1.4075866507    6.4343233750
O        0.5939145450   -2.8002717696    6.5265319165
S       -0.2745073078   -1.9582471285    5.6852996346
Cl      -2.0924849456   -5.1443296101    0.4506357695
Cl      -3.1832182207   -2.1636731749    0.9977029809
H        3.1679939684   -5.1975274087    1.5270899315
H        3.5682608937   -4.8822725516    3.9611045065
H        2.0257145445   -3.4176963010    0.2241984852
H        2.8209905292   -2.8137383371    5.0851511590
H        1.2821722515   -1.3430188423    1.3416476654
H        0.2567046501   -4.6709644918    4.7000416842
H       -0.4410387140   -5.8754591935    2.6603302713
H       -2.1008160557   -1.2870862867    3.4796161784
H        1.8687257833    0.2398564873    3.5133370638
H        0.4448397808    0.3806196656    5.4136271339
29   

C        2.9320470293   -4.2226221427    1.9830973785
C        2.9728094853   -4.1088281004    3.3748355455
C        2.4350194027   -3.1659951088    1.2161865290
C        2.5064765156   -2.9457302140    3.9975422686
C        1.9754024801   -2.0011470411    1.8408198116
C       -0.4738832500   -4.1799377417    4.0683440984
C       -0.8827035836   -4.8974088863    2.9436950904
C       -1.7560890090   -2.2853971498    3.3079235344
C        1.9906428089   -1.8803797955    3.2396474813
C       -0.8929894139   -2.8578035118    4.2515685171
C       -1.7209961988   -4.3168753414    1.9854047041
C       -2.1682345276   -2.9956504128    2.1729333436
C        1.4740279099   -0.6565091255    3.8779540664
C        0.6641752122   -0.5463310133    4.9421104181
O       -1.4405427454   -1.2982336570    6.4017215243
O        0.5431569336   -2.7135497472    6.5598007999
S       -0.3028178870   -1.8884803878    5.6800912951
Cl      -2.1919655424   -5.2434046356    0.5774750878
Cl      -3.2203055532   -2.2214785545    1.0080232426
H        3.2901142638   -5.1247054599    1.4995113613
H        3.3693927298   -4.9196608921    3.9756650814
H        2.4034626904   -3.2489639684    0.1355655628
H        2.5633416220   -2.8709170656    5.0782769140
H        1.5864857733   -1.1934971072    1.2306474493
H        0.1849510427   -4.6468346533    4.7961861343
H       -0.5406083332   -5.9160463069    2.8054606827
H       -2.1069339957   -1.2671236415    3.4462836513
H        1.7292152692    0.2726203815    3.3785067880
H        0.4634439172    0.4237017483    5.3707457664
29   

C        3.0306373318   -4.0357624596    1.7307781881
C        2.7666747865   -4.1489895805    3.0966810929
C        2.8145330148   -2.8174372319    1.0850226737
C        2.2771234725   -3.0503917830    3.8117232414
C        2.3269242710   -1.7197648801    1.8027374116
C       -0.6811088861   -4.3044036767    4.3283668522
C       -1.1069970204   -5.1028946482    3.2661051599
C       -1.5986479436   -2.3688014398    3.2213025650
C        2.0358168978   -1.8186730847    3.1748676121
C       -0.9120969530   -2.9242817394    4.3093236739
C       -1.7729988164   -4.5455165346    2.1686708568
C       -2.0244407347   -3.1609906162    2.1474397279
C        1.4875024921   -0.6491378751    3.8708062028
C        0.6529315345   -0.5596063127    4.9213517992
O       -1.4822625386   -1.2531887407    6.3609627966
O        0.4844568850   -2.6583564670    6.6251783030
S       -0.3339140598   -1.8743326228    5.6842530323
Cl      -2.2800268214   -5.5802587636    0.8514780947
Cl      -2.8558321715   -2.4115933888    0.8018905454
H        3.4081549548   -4.8874117079    1.1758108256
H        2.9484861481   -5.0875177112    3.6079829169
H        3.0222208822   -2.7226254255    0.0250699022
H        2.1194640546   -3.1647465004    4.8761448156
H        2.1589706990   -0.7862032268    1.2772586702
H       -0.1650751136   -4.7574828359    5.1714246948
H       -0.9193293442   -6.1698086161    3.2884660283
H       -1.8033507472   -1.3029574522    3.1982520221
H        1.7704550142    0.3053314146    3.4384685856
H        0.4550737635    0.4104868622    5.3517209916
29   

C        3.3398816034   -3.9372600480    1.7035707797
C        2.8289721062   -4.1453166781    2.9847952687
C        3.2510760852   -2.6714316155    1.1248977290
C        2.2226000431   -3.0939809021    3.6813657899
C        2.6451163015   -1.6216243037    1.8234686824
C       -0.7905059869   -4.3424491368    4.3918941392
C       -1.3007670228   -5.1620498394    3.3839068192
C       -1.7297316974   -2.4193094299    3.2810150377
C        2.1088345871   -1.8098534557    3.1117901053
C       -0.9911294850   -2.9581576731    4.3433067651
C       -2.0227825070   -4.6222300139    2.3132109305
C       -2.2415736832   -3.2330438215    2.2623365763
C        1.4424836690   -0.6768155944    3.7569882841
C        0.6016603581   -0.5815683806    4.8046188615
O       -1.4364889061   -1.2462317520    6.3870180169
O        0.5424841538   -2.6449531480    6.5677042429
S       -0.3284944916   -1.8812241477    5.6581220753
Cl      -2.6413464669   -5.6843494739    1.0672918259
Cl      -3.1421097541   -2.5048027838    0.9499115890
H        3.8085617385   -4.7525702082    1.1637053324
H        2.9093380206   -5.1226193050    3.4471049055
H        3.6493293442   -2.5020197688    0.1307464764
H        1.8811868797   -3.2980089666    4.6841929272
H        2.5819399168   -0.6514178338    1.3432877577
H       -0.2384729191   -4.7834701719    5.2185054556
H       -1.1393950995   -6.2325998646    3.4296186419
H       -1.9134551525   -1.3502251870    3.2369714226
H        1.6738636050    0.2824523649    3.3051522382
H        0.3590052998    0.4007194528    5.1813309506
29   

C        2.8480505768   -2.1972747908    0.3984522886
C        1.4891697656   -2.1449598789    0.7055883512
C        3.7858500954   -1.8900172200    1.3827098569
C        1.0691152271   -1.7926639028    1.9932226473
C        3.3631269374   -1.5378327595    2.6689764697
C       -0.7051616462   -4.1826256001    5.3658359946
C       -0.6453264927   -5.5567675889    5.1244123749
C       -1.4839033672   -3.8396164270    3.1100128908
C        1.9959776804   -1.4836688375    3.0097179211
C       -1.1101006644   -3.3068217633    4.3529853166
C       -0.9939985170   -6.0855292007    3.8759546419
C       -1.4219275374   -5.2154217491    2.8566344430
C        1.6517682300   -1.1550317751    4.3938911743
C        0.5039679391   -1.0449878674    5.0926639046
O       -1.6803595319   -0.7846977548    3.4791077744
O       -2.0399540154   -1.2597266286    5.8409547361
S       -1.1940278568   -1.5102942354    4.6641352337
Cl      -0.8986244647   -7.8133030417    3.6130683797
Cl      -1.8807510644   -5.8215123974    1.2798868185
H        3.1720829313   -2.4715701683   -0.5993638680
H        0.7534648867   -2.3735641449   -0.0574268734
H        4.8444144448   -1.9267724885    1.1510630726
H        0.0082060042   -1.7498151864    2.1582520216
H        4.1205857754   -1.3123391539    3.4113404083
H       -0.4399855529   -3.7957947167    6.3460939479
H       -0.3276927141   -6.2280619103    5.9136312264
H       -1.8364819208   -3.1807883405    2.3212856527
H        2.5178890548   -0.9049468326    4.9978860860
H        0.5598524752   -0.6447338589    6.0937784746
29   

C        2.5728147279   -2.6872791966    0.6605740813
C        1.2551592812   -2.2947893325    0.8955750622
C        3.5365111538   -2.4886418065    1.6491763134
C        0.9003021654   -1.7157603927    2.1189710360
C        3.1787379389   -1.9103299573    2.8720395250
C       -0.3632308177   -4.1304398405    5.3969903858
C       -0.1261927129   -5.4718723886    5.0887567601
C       -1.2987662811   -3.8129995717    3.1977537455
C        1.8521548331   -1.5215584822    3.1399369982
C       -0.9379269006   -3.2826745053    4.4453494415
C       -0.4624104385   -5.9945548089    3.8338630547
C       -1.0594446364   -5.1540594512    2.8769868431
C        1.5406387527   -0.9859316772    4.4666903558
C        0.3870297600   -0.8071182444    5.1389706228
O       -1.9192760925   -0.8520994597    3.7062739616
O       -2.0310806923   -1.4203691810    6.0698132966
S       -1.2475008740   -1.5267337668    4.8296397971
Cl      -0.1401703761   -7.6790042909    3.4852044385
Cl      -1.5074471496   -5.7530741439    1.2944046375
H        2.8467157496   -3.1378613449   -0.2869884078
H        0.5044745624   -2.4310858377    0.1250784574
H        4.5633259586   -2.7875885371    1.4707011702
H       -0.1206984709   -1.3874071052    2.2348734988
H        3.9473601734   -1.7804310306    3.6257514521
H       -0.1020327557   -3.7470251695    6.3795696880
H        0.3231192716   -6.1222597121    5.8297784904
H       -1.7744803489   -3.1769548133    2.4563637745
H        2.4136500460   -0.6548693397    5.0198624281
H        0.4062662258   -0.2257658423    6.0484426533
29   

C        2.3643065754   -2.8802663318    0.7578246422
C        1.1388697138   -2.2315408599    0.9159593377
C        3.3015048688   -2.8460966273    1.7915927460
C        0.8467038009   -1.5625741660    2.1097194451
C        3.0071469574   -2.1753212942    2.9839468102
C       -0.2804261483   -4.0865247180    5.3912756685
C        0.0419735925   -5.4057104999    5.0640082804
C       -1.1403783663   -3.7678881415    3.1619268458
C        1.7694638624   -1.5350269365    3.1722012215
C       -0.8592357875   -3.2483822021    4.4339644073
C       -0.2114076580   -5.9148186688    3.7840753681
C       -0.8141878595   -5.0852080153    2.8216082402
C        1.4908088535   -0.8916382573    4.4613580667
C        0.3362431087   -0.7085524134    5.1266550653
O       -1.9695397399   -0.8707727516    3.7120281037
O       -2.0404900239   -1.4515039145    6.0766752912
S       -1.2604780703   -1.5140275952    4.8310884172
Cl       0.2217288023   -7.5687141696    3.4104704269
Cl      -1.1580419989   -5.6665118522    1.2066585004
H        2.5889972978   -3.4021442285   -0.1658036897
H        0.4133987629   -2.2402828766    0.1101050967
H        4.2571336666   -3.3439027001    1.6712441599
H       -0.0968518393   -1.0378531443    2.1829625328
H        3.7469339877   -2.1716634355    3.7766607740
H       -0.0796577004   -3.7117331484    6.3912267670
H        0.4958264994   -6.0485824413    5.8086995434
H       -1.6142083103   -3.1382375255    2.4140252553
H        2.3718820677   -0.5319358541    4.9830430373
H        0.3305909474   -0.0820353113    6.0056750079
29   

C        2.1160869022   -2.9675847298    0.8098386655
C        1.0719624234   -2.0444786782    0.9010353456
C        2.9542042575   -3.1757690177    1.9077527216
C        0.8578452998   -1.3431125841    2.0927729486
C        2.7423449284   -2.4682700115    3.0965085496
C       -0.2583254453   -4.0407979187    5.3864723963
C        0.1465512600   -5.3376647754    5.0606235500
C       -0.9840412387   -3.7207363531    3.1101708523
C        1.6814244415   -1.5556637811    3.2119421285
C       -0.8095150998   -3.2117396519    4.4051569067
C        0.0027225914   -5.8334844347    3.7585561367
C       -0.5762254630   -5.0156211862    2.7719574322
C        1.4503236379   -0.8541780291    4.4870516315
C        0.2923686732   -0.6566461929    5.1360410143
O       -1.9513991243   -0.8621915424    3.6381597204
O       -2.1045129296   -1.4459771116    6.0044377920
S       -1.2783265035   -1.4902116657    4.7879829741
Cl       0.5446310687   -7.4552769799    3.3862699311
Cl      -0.7839188263   -5.5813850386    1.1284152502
H        2.2767571137   -3.5179804215   -0.1105886212
H        0.4250254400   -1.8705610345    0.0483620831
H        3.7670553412   -3.8899230162    1.8392521890
H        0.0501857869   -0.6202296363    2.1371793588
H        3.3972698961   -2.6486789305    3.9415085035
H       -0.1366763751   -3.6735896738    6.4018651041
H        0.5827896319   -5.9721727449    5.8227953882
H       -1.4292118727   -3.0959855456    2.3409120091
H        2.3443524241   -0.5135113259    4.9993139196
H        0.2645109043   -0.0224637109    6.0089317960
29   

C        2.0164262823   -2.9819579036    0.8347720177
C        1.1096291890   -1.9191425910    0.8662029620
C        2.7404683054   -3.3106547870    1.9839905236
C        0.9200584754   -1.1942870457    2.0480045003
C        2.5537217777   -2.5804987341    3.1632167786
C       -0.2656779230   -4.0115541249    5.3819937302
C        0.1591666630   -5.3060104604    5.0715097631
C       -0.9146585380   -3.6981009283    3.0813652586
C        1.6295380704   -1.5256280174    3.2132946678
C       -0.7892376078   -3.1872000510    4.3814510460
C        0.0604510606   -5.8050245338    3.7664739876
C       -0.4913400254   -4.9926241112    2.7600135709
C        1.4232965841   -0.7666093958    4.4665115469
C        0.2768085410   -0.6301812098    5.1448541026
O       -1.9048421163   -0.8413906256    3.5647986909
O       -2.1496281957   -1.4209049672    5.9275649978
S       -1.2784790806   -1.4659448354    4.7427849077
Cl       0.6255929689   -7.4235222969    3.4146810754
Cl      -0.6453484303   -5.5649468495    1.1127481066
H        2.1572413857   -3.5499233739   -0.0782114661
H        0.5489272509   -1.6565475736   -0.0240066405
H        3.4442364102   -4.1350569270    1.9621816358
H        0.2121036413   -0.3712043445    2.0583361822
H        3.1180383662   -2.8493444153    4.0490170089
H       -0.1793201778   -3.6421010321    6.4001664039
H        0.5754310711   -5.9363717604    5.8482299511
H       -1.3324306209   -3.0746992985    2.2957701313
H        2.3175533846   -0.3664254629    4.9332757616
H        0.2383647675   -0.0242440745    6.0370851764
29   

C        1.9834658115   -3.0032208348    0.8757536462
C        1.1713960224   -1.8662206931    0.8376356651
C        2.6004969902   -3.3758394129    2.0732105259
C        0.9729124730   -1.1076883991    1.9966991920
C        2.4017740077   -2.6141656006    3.2302825938
C       -0.2592517305   -4.0236054660    5.3996293910
C        0.1639395477   -5.3151669126    5.0741704766
C       -0.9079748980   -3.6830658461    3.1023509974
C        1.5741603006   -1.4811642216    3.2071219398
C       -0.7827067998   -3.1874652461    4.4085989130
C        0.0617746308   -5.8001602714    3.7640708465
C       -0.4899323181   -4.9760124205    2.7671514361
C        1.3733435136   -0.6667190348    4.4319323276
C        0.2687478577   -0.6225120063    5.1838498702
O       -1.9165014839   -0.8436267408    3.6183486266
O       -2.1434179726   -1.4433304783    5.9793027189
S       -1.2795812785   -1.4721539598    4.7885510395
Cl       0.6233143514   -7.4158544158    3.3938989456
Cl      -0.6498745060   -5.5319434799    1.1147601691
H        2.1325173684   -3.5956191307   -0.0202449776
H        0.6914854539   -1.5721280273   -0.0891650228
H        3.2296482825   -4.2581661368    2.1059293493
H        0.3354168584   -0.2296160161    1.9588472577
H        2.8832280804   -2.9139398846    4.1542311755
H       -0.1725486311   -3.6661711313    6.4220647957
H        0.5803295541   -5.9548795037    5.8432071092
H       -1.3224734596   -3.0489754922    2.3234846664
H        2.2484061508   -0.1465090528    4.8079360657
H        0.2451380155   -0.0444961350    6.0948592752
29   

C        1.9991380180   -3.1056457556    0.9060590316
C        1.2675051524   -1.9233308552    0.7622279981
C        2.4999047636   -3.4637391508    2.1607247621
C        1.0360326527   -1.1028048521    1.8720927091
C        2.2644639784   -2.6422759970    3.2688882019
C       -0.2241004914   -4.0635138315    5.3684721821
C        0.1845530222   -5.3455105871    4.9897139507
C       -0.9570528029   -3.6558661144    3.1072619118
C        1.5203713477   -1.4595771127    3.1377556883
C       -0.7824532824   -3.1985100710    4.4219485244
C        0.0317771818   -5.7924222015    3.6708634956
C       -0.5557573429   -4.9394463728    2.7196927278
C        1.2976309745   -0.5725293548    4.3104135501
C        0.2614730286   -0.5972849427    5.1532333188
O       -2.0299083254   -0.8750792774    3.7671505275
O       -2.0479393382   -1.5127388782    6.1265518705
S       -1.2814374929   -1.5007588445    4.8704892737
Cl       0.5758874291   -7.3970506924    3.2328438746
Cl      -0.7804752611   -5.4477583211    1.0594832182
H        2.1754479787   -3.7444818745    0.0477001677
H        0.8774269133   -1.6416408568   -0.2094727011
H        3.0663807000   -4.3809274778    2.2758696503
H        0.4642905578   -0.1880554573    1.7523686562
H        2.6563426532   -2.9292895410    4.2381064775
H       -0.1018897610   -3.7371232799    6.3977253575
H        0.6274029684   -6.0082896437    5.7236822742
H       -1.3999241609   -2.9992584463    2.3633831746
H        2.1045187295    0.1156982549    4.5408589166
H        0.2701114055    0.0011896933    6.0512309218
29   

C        3.0380284772   -3.5117239547    2.1388105428
C        1.9444672537   -3.0670618382    1.3890349440
C        3.3250499673   -2.9162789468    3.3712306832
C        1.1432099450   -2.0243885056    1.8682491589
C        2.5217793668   -1.8756488616    3.8509153050
C        0.1971353067   -4.2874604248    4.3835767321
C        0.1143438220   -5.3000744714    3.4273058161
C       -1.8100740163   -3.2964179817    3.4879475076
C        1.4311536507   -1.4136391991    3.0994111207
C       -0.7573590723   -3.2650670456    4.4126168805
C       -0.9179025655   -5.3151623121    2.4829849782
C       -1.8956779234   -4.3032089064    2.5167158666
C        0.5522199119   -0.3315478905    3.6110391879
C       -0.3455938780   -0.4263983433    4.5971876953
O       -1.8632821230   -1.7352319656    6.3614399376
O        0.5490346072   -2.1147879253    6.5028606713
S       -0.6066397184   -1.8999224350    5.6145161115
Cl      -0.9657745816   -6.5846740146    1.2794142094
Cl      -3.2071219143   -4.2733525271    1.3580716778
H        3.6599984342   -4.3182779390    1.7667880125
H        1.7134560270   -3.5329233200    0.4376017577
H        4.1684540710   -3.2607278064    3.9592691430
H        0.2912142964   -1.6949396392    1.2839362823
H        2.7420442050   -1.4275867069    4.8150724733
H        1.0173635290   -4.2843293974    5.0970961695
H        0.8671967770   -6.0788237277    3.4074872787
H       -2.5693941235   -2.5204605392    3.5085057541
H        0.5670584606    0.5964773643    3.0485913978
H       -0.9788470672    0.4108834609    4.8475413641
29   

C        3.0833895736   -3.4987316081    2.1250659278
C        2.0597866546   -3.0153930552    1.3043252629
C        3.2579501626   -2.9659310317    3.4058084951
C        1.2137728298   -1.9989771614    1.7625588275
C        2.4080908429   -1.9540686385    3.8659421716
C        0.1762286044   -4.3079351286    4.4082738056
C        0.0878875122   -5.3158790254    3.4476449969
C       -1.8254012348   -3.3023321138    3.5170409824
C        1.3783338008   -1.4600618123    3.0493728685
C       -0.7710435192   -3.2789215469    4.4397698817
C       -0.9455693788   -5.3222324584    2.5044985050
C       -1.9185752492   -4.3059924753    2.5436856905
C        0.4625115355   -0.3997601923    3.5265953024
C       -0.3440239897   -0.4472087316    4.5943177991
O       -1.8558809262   -1.7279655035    6.3853360136
O        0.5542114801   -2.1211702341    6.5165401960
S       -0.6049288543   -1.9074492421    5.6324765810
Cl      -1.0014426099   -6.5867755095    1.2960857457
Cl      -3.2325888072   -4.2658321085    1.3882985665
H        3.7410428453   -4.2837216188    1.7685870550
H        1.9196773281   -3.4292759158    0.3120260587
H        4.0518541698   -3.3346751036    4.0457610911
H        0.4196011848   -1.6375656671    1.1187354229
H        2.5518800087   -1.5490487387    4.8630107963
H        0.9967944706   -4.3123024026    5.1213391598
H        0.8369660814   -6.0981473527    3.4234498304
H       -2.5792628213   -2.5211465685    3.5398646171
H        0.3646048488    0.4675053511    2.8815553738
H       -0.9464175659    0.4065174857    4.8646510474
29   

C        3.1722894272   -3.4121301020    2.0456769539
C        2.2486250765   -2.8231864947    1.1774836709
C        3.2089766971   -3.0246657789    3.3879571492
C        1.3589735640   -1.8526162543    1.6520216687
C        2.3157086042   -2.0587337232    3.8640334588
C        0.1124696717   -4.3351045913    4.4524086600
C        0.0099586696   -5.3590057518    3.5101930814
C       -1.8644479548   -3.3084636151    3.5307956364
C        1.3698433411   -1.4732091673    3.0057975980
C       -0.8150576950   -3.2876850947    4.4589672561
C       -1.0202544167   -5.3649365053    2.5633137188
C       -1.9734569323   -4.3295274025    2.5777554453
C        0.4228466449   -0.4465999240    3.4780043970
C       -0.3341251942   -0.4599271462    4.5854622072
O       -1.9009421783   -1.6898164646    6.3633405939
O        0.4945069925   -2.1307448481    6.5463319135
S       -0.6408299342   -1.9037817290    5.6353681713
Cl      -1.0990508255   -6.6550217779    1.3834609114
Cl      -3.2844365457   -4.2891229267    1.4189139419
H        3.8637136475   -4.1616941415    1.6770009572
H        2.2217055772   -3.1181800630    0.1344864207
H        3.9336662521   -3.4669553765    4.0624690365
H        0.6473978852   -1.4060355340    0.9663973064
H        2.3731175053   -1.7553703832    4.9041388637
H        0.9264687122   -4.3444903497    5.1729053987
H        0.7428007391   -6.1569319118    3.5054151603
H       -2.6043389864   -2.5137015925    3.5359454171
H        0.2685047493    0.3919846642    2.8065687550
H       -0.9035896708    0.4137615763    4.8635480933
29   

C        3.2185767389   -3.2028130046    1.8156165904
C        2.4553370279   -2.3905181405    0.9734161886
C        3.0668336802   -3.1022172646    3.2006097005
C        1.5313385569   -1.4898784386    1.5150425883
C        2.1423445909   -2.2031313650    3.7432957270
C       -0.0132250981   -4.4292930057    4.7400985633
C       -0.0991908837   -5.5362589180    3.8947009845
C       -1.7699154288   -3.3545400117    3.4860810327
C        1.3408195966   -1.4058988107    2.9079785998
C       -0.8412164791   -3.3200053051    4.5348833472
C       -1.0113177721   -5.5625007827    2.8335801376
C       -1.8594028776   -4.4583320823    2.6283187798
C        0.3671113208   -0.4334560458    3.4188229611
C       -0.4028945394   -0.4581983779    4.5205270722
O       -1.9985595064   -1.6310925823    6.3061958567
O        0.3867642957   -2.0237789367    6.5847665279
S       -0.7168872534   -1.8613112004    5.6228254181
Cl      -1.0794540734   -6.9655614024    1.7897223957
Cl      -3.0206715708   -4.4388006361    1.3189251198
H        3.9347157737   -3.9007053062    1.3961747683
H        2.5797967248   -2.4581620857   -0.1015351930
H        3.6741645431   -3.7134770481    3.8585928564
H        0.9491943026   -0.8682001845    0.8438461748
H        2.0803315015   -2.1173304635    4.8205573447
H        0.7022404568   -4.4295797248    5.5588039693
H        0.5493934265   -6.3883993823    4.0595895262
H       -2.4336167800   -2.5107991805    3.3241252891
H        0.2095905299    0.4283663080    2.7781488943
H       -0.9834621309    0.4148801176    4.7775043629
29   

C        3.4646873104   -3.0037717250    1.7386353586
C        2.7937405982   -2.0826223540    0.9322081863
C        3.1294616549   -3.1135466241    3.0894837650
C        1.7791146221   -1.2848498101    1.4726140760
C        2.1148970614   -2.3165148405    3.6311042760
C       -0.0959917447   -4.4994072643    4.8050192581
C       -0.2640703957   -5.6466358070    4.0279072258
C       -1.8990210877   -3.4415126740    3.6033153945
C        1.4007154955   -1.4117926201    2.8253416686
C       -0.9066051087   -3.3788352104    4.5908367077
C       -1.2430314305   -5.7030405287    3.0290708266
C       -2.0725465963   -4.5865412611    2.8155933624
C        0.3485800079   -0.5186111927    3.3172241204
C       -0.4185660792   -0.5318434065    4.4236353826
O       -1.9457005894   -1.5912222893    6.3314832394
O        0.4399971818   -2.0195620186    6.5260389376
S       -0.6998367489   -1.8767212822    5.6043134214
Cl      -1.4183338950   -7.1592747803    2.0742442202
Cl      -3.3174546701   -4.6041438789    1.5852669977
H        4.2518614704   -3.6217870341    1.3211527750
H        3.0611423193   -1.9844699264   -0.1139579350
H        3.6664613356   -3.8080700128    3.7256429604
H        1.2765722010   -0.5751143050    0.8248473857
H        1.9287511050   -2.3980658154    4.6909509261
H        0.6648727740   -4.4806930244    5.5815463856
H        0.3691783325   -6.5089033004    4.2001137210
H       -2.5520853520   -2.5898823849    3.4386179837
H        0.1437803622    0.3238172687    2.6643213374
H       -1.0304071299    0.3313620172    4.6384029546
29   

C        2.4738382674   -3.0677385714    0.1951586771
C        3.2865876590   -2.1545918416    0.8677742841
C        1.1467555125   -3.2339214400    0.5931733620
C        2.7752897848   -1.4186723338    1.9424313075
C        0.6340294316   -2.4979737942    1.6672496881
C       -0.3578728015   -3.5529336374    5.8189886148
C        0.0900981843   -4.8366546997    6.1382270477
C       -1.3003439294   -4.4125397998    3.7729641784
C        1.4434006004   -1.5927882359    2.3768946470
C       -1.0451494306   -3.3251338653    4.6221571408
C       -0.1437578434   -5.9169454713    5.2789087787
C       -0.8511287098   -5.7021143874    4.0820671721
C        1.0039482807   -0.7582949509    3.4965637351
C       -0.1472019334   -0.6230432418    4.1848405518
O       -2.3138406413   -1.6456903935    2.8883780481
O       -2.5194279696   -1.1587252615    5.2653620122
S       -1.6380773234   -1.6522501984    4.1963923553
Cl       0.4400573895   -7.5085419869    5.7140376950
Cl      -1.1816788332   -7.0169406305    2.9748009599
H        2.8674302200   -3.6383388045   -0.6387437409
H        4.3150792385   -2.0141368171    0.5547150114
H        0.5056617146   -3.9283059663    0.0615717792
H        3.4320245573   -0.7141553706    2.4404770138
H       -0.4054030024   -2.6417337184    1.9019516986
H       -0.1734897885   -2.7316167855    6.5060917869
H        0.6248816903   -5.0045174456    7.0656704355
H       -1.8620427336   -4.2628005405    2.8548715908
H        1.7612891737   -0.0580047276    3.8336039397
H       -0.2264029382    0.1948010876    4.8851655812
