36

C     -2.82859   -2.20987   -0.90376
C     -2.10263   -3.03001    1.20219
C     -3.01572   -3.11628    0.14571
C     -1.78025   -1.28708   -0.88054
C     -0.92133   -1.29147    0.24110
C      0.54091   -0.49530   -5.18733
C      0.49530    0.76211   -4.34113
C      1.55174   -0.81421    0.78665
C      1.32035   -0.25963   -0.60404
C     -0.64839   -0.22574   -4.29839
C      0.19030   -0.28776    0.40633
C     -4.14020   -4.12272    0.14565
C     -0.26618    1.02225    1.03366
C     -1.58893   -0.36581   -2.06396
N     -1.09598   -2.15020    1.25826
N     -0.78362   -1.02451   -3.10585
H     -3.51408   -2.21718   -1.75185
H     -2.19192   -3.70602    2.05343
H      0.41008   -0.40175   -6.26149
H      1.21728   -1.28260   -4.86945
H      1.13915    0.79538   -3.46841
H      0.33435    1.71476   -4.83723
H      1.65740   -1.88836    0.89968
H      2.14035   -0.22658    1.48616
H      1.74706    0.71070   -0.84830
H      1.26832   -0.95338   -1.43661
H     -1.57098    0.08940   -4.79784
H     -4.07513   -4.79293   -0.71884
H     -4.11856   -4.73931    1.04868
H     -5.11677   -3.62754    0.10173
H      0.57576    1.71371    1.14652
H     -0.69510    0.84117    2.02520
H     -1.02889    1.51803    0.42136
H     -2.57981   -0.05753   -2.44243
H     -1.06342    0.54454   -1.77017
H     -1.20005   -1.92534   -3.33620
