36

C     -5.33738   -0.77991   -4.19481
C     -7.12333   -2.15819   -4.93383
C     -6.51378   -0.89922   -4.94146
C     -4.81153   -1.87013   -3.49980
C     -5.52263   -3.08985   -3.55150
C     -2.64575   -1.29415   -6.00907
C     -1.16573   -1.50993   -5.77358
C     -5.05429   -5.62467   -3.47197
C     -3.76980   -4.95594   -3.02735
C     -2.05602   -1.07215   -4.63468
C     -5.10911   -4.29976   -2.75298
C     -7.08938    0.26053   -5.71662
C     -5.64352   -4.29024   -1.32700
C     -3.49988   -1.71539   -2.75819
N     -6.65780   -3.21530   -4.25807
N     -2.34172   -2.04531   -3.60968
H     -4.81248    0.17376   -4.16326
H     -8.04216   -2.32104   -5.49856
H     -2.95929   -0.42442   -6.57940
H     -3.26843   -2.17403   -6.12881
H     -0.81044   -2.53557   -5.74647
H     -0.46363   -0.78820   -6.18050
H     -5.29214   -5.62657   -4.53083
H     -5.39362   -6.50446   -2.93159
H     -3.23661   -5.37807   -2.17818
H     -3.13346   -4.50321   -3.78001
H     -1.96009   -0.02811   -4.31569
H     -6.38609    0.61666   -6.47802
H     -8.01566   -0.02311   -6.22442
H     -7.31371    1.10753   -5.05860
H     -5.33232   -5.19169   -0.78807
H     -6.73834   -4.25531   -1.33104
H     -5.28151   -3.42070   -0.76521
H     -3.43805   -0.68477   -2.36702
H     -3.47041   -2.38995   -1.90041
H     -1.52212   -2.15812   -3.01627
