14   
Generated by ForceBalance from scan.xyz: Frame 1 of 24
C       -0.2226210332   -1.1393174566   -1.6263463340
C       -0.4210195078   -0.6899890060   -0.1714154536
C       -0.2130572490    1.8423328265   -0.6725783101
C        0.2429584060    0.6467420263    0.1524288157
Cl      -2.0077134609    2.0696072888   -0.6941565024
Cl       0.0333955773    1.0083895628    1.9319926032
H       -0.5039905878   -0.3687692746   -2.3496575522
H        0.8111043337   -1.4485395388   -1.8159054890
H       -0.8536502809   -2.0109980732   -1.8264112664
H       -1.4856493195   -0.6412348706    0.0711126838
H        0.0078058529   -1.4416502099    0.4986061854
H        0.0955412563    1.7109695258   -1.7112410042
H        0.2184948126    2.7651569025   -0.2860781663
H        1.3264747565    0.5709826498    0.0134099802
14   
Generated by ForceBalance from scan.xyz: Frame 2 of 24
C       -0.1849888913   -1.1714241756   -1.6324131049
C       -0.4006820133   -0.7022614832   -0.1812958074
C       -0.2539230593    1.8415623183   -0.6459077734
C        0.2566673342    0.6387060925    0.1372253488
Cl      -2.0486881599    2.0531292462   -0.5691868506
Cl       0.1182717368    0.9707806306    1.9287345822
H       -0.2107175617   -0.3545952528   -2.3589510222
H        0.7595089359   -1.7135455012   -1.7422936397
H       -0.9789704331   -1.8695020754   -1.9151274200
H       -1.4659503352   -0.6577729113    0.0578563608
H        0.0230634916   -1.4457265080    0.5004974164
H       -0.0005216204    1.7299232172   -1.7014914419
H        0.1897663542    2.7625105519   -0.2687997541
H        1.3340375901    0.5824383370   -0.0509020807
14   
Generated by ForceBalance from scan.xyz: Frame 3 of 24
C       -0.1623018350   -1.1788833753   -1.6244858112
C       -0.3709739530   -0.7056854806   -0.1677696993
C       -0.2958711106    1.8387641573   -0.6438203607
C        0.2632076920    0.6517692448    0.1312951162
Cl      -2.0924957868    2.0104731084   -0.5197278991
Cl       0.1560267589    0.9885122459    1.9241383571
H        0.0876165556   -0.3638758268   -2.3100425153
H        0.6319305790   -1.9279697362   -1.6908077869
H       -1.0734887850   -1.6445847792   -2.0099977646
H       -1.4337836234   -0.6659768217    0.0811655334
H        0.0707258502   -1.4320670843    0.5194763707
H       -0.0699731964    1.7282366190   -1.7056519479
H        0.1362805456    2.7715571396   -0.2827649097
H        1.3372624212    0.6205638517   -0.0798969056
14   
Generated by ForceBalance from scan.xyz: Frame 4 of 24
C       -0.1470579814   -1.1758746759   -1.6273457642
C       -0.3504523314   -0.7154811343   -0.1632150728
C       -0.3484103273    1.8181690542   -0.6749879599
C        0.2513665099    0.6619938652    0.1160858231
Cl      -2.1453642205    1.9576297419   -0.5144558621
Cl       0.1506192579    1.0231323387    1.9036714630
H        0.3920730655   -0.4349670683   -2.2273498988
H        0.4405031805   -2.0967232919   -1.6751677807
H       -1.1017906209   -1.3561420384   -2.1275281932
H       -1.4128156039   -0.6742507264    0.0873407274
H        0.1108582052   -1.4250042065    0.5274418762
H       -0.1454841561    1.6821677341   -1.7386026566
H        0.0723632085    2.7687150358   -0.3482782818
H        1.3238767832    0.6567523882   -0.1045401229
14   
Generated by ForceBalance from scan.xyz: Frame 5 of 24
C       -0.1521637298   -1.1560003436   -1.6207216270
C       -0.3101805276   -0.7306476382   -0.1435533003
C       -0.3739482453    1.7915479426   -0.6888150480
C        0.2570895539    0.6650432688    0.1198088796
Cl      -2.1747806672    1.8818355985   -0.5317386559
Cl       0.1511257279    1.0461900517    1.9024335539
H        0.5987373167   -0.5480491769   -2.1395740081
H        0.2037322031   -2.1870794233   -1.6967790836
H       -1.0880816716   -1.0614382023   -2.1766112597
H       -1.3653175230   -0.7072699636    0.1389192127
H        0.1979424934   -1.4312139346    0.5227142936
H       -0.1657229644    1.6421396004   -1.7497507279
H        0.0186179550    2.7591596867   -0.3775043571
H        1.3288582649    0.6845447801   -0.1034384240
14   
Generated by ForceBalance from scan.xyz: Frame 6 of 24
C       -0.1563038307   -1.1297118515   -1.6169927390
C       -0.2782990898   -0.7322925319   -0.1338103527
C       -0.4044569927    1.7841544245   -0.6900828555
C        0.2510927243    0.6783173193    0.1262985899
Cl      -2.2082646435    1.8241487384   -0.5438323824
Cl       0.1317547964    1.0629591734    1.9073552387
H        0.7296800221   -0.6781700123   -2.0804741395
H       -0.0267632167   -2.2109866982   -1.7181868492
H       -1.0303263042   -0.8211628983   -2.1966286921
H       -1.3247983290   -0.7508587387    0.1807688899
H        0.2777927573   -1.4245451296    0.5031392585
H       -0.1842738832    1.6353657856   -1.7488378341
H       -0.0411300389    2.7636078903   -0.3802973003
H        1.3226989410    0.7235140782   -0.0940681069
14   
Generated by ForceBalance from scan.xyz: Frame 7 of 24
C       -0.1445552970   -1.1371895618   -1.6207180498
C       -0.2557003161   -0.7430553571   -0.1401522956
C       -0.4418446813    1.7745159152   -0.6857272155
C        0.2416595993    0.6788918680    0.1205919822
Cl      -2.2453477748    1.7715600119   -0.5343974422
Cl       0.1272372335    1.0520415005    1.9045676295
H        0.8316254420   -0.8602596593   -2.0379529578
H       -0.2375991501   -2.2214959735   -1.7326850554
H       -0.9212752173   -0.6632196032   -2.2273581487
H       -1.2956298017   -0.8071083170    0.1906837672
H        0.3323258707   -1.4238051496    0.4812904980
H       -0.2201041351    1.6384247991   -1.7459392248
H       -0.0998890910    2.7597918997   -0.3700753999
H        1.3103413457    0.7494726972   -0.1074177292
14   
Generated by ForceBalance from scan.xyz: Frame 8 of 24
C       -0.1245216665   -1.1427596736   -1.6192462075
C       -0.2302566340   -0.7316732837   -0.1447206648
C       -0.4625480117    1.7881503511   -0.6815670270
C        0.2438850584    0.6979585968    0.1121025014
Cl      -2.2650777582    1.7465951291   -0.5288937316
Cl       0.1381327392    1.0623732104    1.8991097138
H        0.9018761177   -1.0541179434   -1.9936308809
H       -0.4355838136   -2.1849194551   -1.7389744088
H       -0.7762452750   -0.5380251940   -2.2571313718
H       -1.2615243123   -0.8351231591    0.2029596787
H        0.3799735340   -1.3997233786    0.4705791141
H       -0.2382013376    1.6707415802   -1.7433811038
H       -0.1401407384    2.7761145072   -0.3540564977
H        1.3095064737    0.7866775445   -0.1238458016
14   
Generated by ForceBalance from scan.xyz: Frame 9 of 24
C       -0.1043215251   -1.1646285058   -1.6318446471
C       -0.2271015061   -0.7347567928   -0.1625603592
C       -0.5116863666    1.7900249024   -0.6685837593
C        0.2277392490    0.7002751062    0.0957912713
Cl      -2.3108226228    1.7052366603   -0.4992693289
Cl       0.1490264934    1.0431450085    1.8894356068
H        0.9399853073   -1.2812874170   -1.9400051527
H       -0.6239739265   -2.1148634266   -1.7862238293
H       -0.5805906573   -0.4473821693   -2.3077260642
H       -1.2542816837   -0.8654013335    0.1872242514
H        0.3895379849   -1.3919659772    0.4584873138
H       -0.2957712866    1.7024108022   -1.7348562422
H       -0.2074520740    2.7775652089   -0.3230103922
H        1.2871858302    0.8097732365   -0.1585874782
14   
Generated by ForceBalance from scan.xyz: Frame 10 of 24
C       -0.0679039503   -1.1885515555   -1.6372141532
C       -0.2154889443   -0.7347924646   -0.1729189619
C       -0.5531620375    1.7895873471   -0.6498879041
C        0.2323401361    0.7040872338    0.0751409115
Cl      -2.3404322773    1.6938548833   -0.3886682349
Cl       0.2224832831    1.0390311865    1.8714735826
H        0.9440587584   -1.5412898574   -1.8566870066
H       -0.7801198085   -1.9876642621   -1.8607801537
H       -0.2990739967   -0.3845882273   -2.3436505572
H       -1.2442921872   -0.8657165378    0.1710851943
H        0.3922647387   -1.3819894244    0.4667134020
H       -0.3930636002    1.7060306322   -1.7260908486
H       -0.2373518074    2.7784610262   -0.3188425942
H        1.2786851256    0.8284410877   -0.2231676942
14   
Generated by ForceBalance from scan.xyz: Frame 11 of 24
C       -0.0447844506   -1.1890595654   -1.6342869683
C       -0.1860690686   -0.7327146458   -0.1644081077
C       -0.5930131879    1.7798296513   -0.6423538260
C        0.2357565981    0.7169489390    0.0688194159
Cl      -2.3704548222    1.6480926829   -0.3325039811
Cl       0.2571007248    1.0599330007    1.8635627251
H        0.8641126446   -1.7764348380   -1.7898504857
H       -0.9047271381   -1.7903380747   -1.9406495738
H       -0.0053174457   -0.3458497827   -2.3315763785
H       -1.2104619757   -0.8676195482    0.1899610754
H        0.4369970337   -1.3622260446    0.4766261467
H       -0.4618249866    1.6917062712   -1.7220527200
H       -0.2903669342    2.7778801750   -0.3268941810
H        1.2721260984    0.8640569011   -0.2528187515
14   
Generated by ForceBalance from scan.xyz: Frame 12 of 24
C       -0.0353520822   -1.1742522563   -1.6432441198
C       -0.1552748990   -0.7411241997   -0.1615954102
C       -0.6353546664    1.7522899256   -0.6471214197
C        0.2324672762    0.7206207765    0.0633961613
Cl      -2.4025301134    1.5857693751   -0.2952730188
Cl       0.2662906296    1.0763784407    1.8548213666
H        0.6891367664   -1.9851155763   -1.7591626754
H       -0.9921629798   -1.5303691470   -2.0335147450
H        0.2974619066   -0.3605145844   -2.2957406443
H       -1.1760318680   -0.8775176029    0.2022057973
H        0.4911613371   -1.3558025184    0.4689176782
H       -0.5263700388    1.6453568749   -1.7277266987
H       -0.3499019450    2.7628247983   -0.3562248058
H        1.2603342885    0.8935578627   -0.2720517796
14   
Generated by ForceBalance from scan.xyz: Frame 13 of 24
C       -0.0433466291   -1.1466628831   -1.6453197267
C       -0.1101400485   -0.7521567094   -0.1525483409
C       -0.6600681478    1.7205297645   -0.6468165450
C        0.2365374040    0.7202331120    0.0719028033
Cl      -2.4224030329    1.5026433679   -0.2970614995
Cl       0.2596816639    1.0817420094    1.8616742458
H        0.4481224932   -2.1170485519   -1.7626824380
H       -1.0418216056   -1.2473627685   -2.0790462083
H        0.5263033413   -0.4310961968   -2.2477883338
H       -1.1171879412   -0.9083930859    0.2410698632
H        0.5791826760   -1.3539251466    0.4438618511
H       -0.5451399629    1.6059171914   -1.7261606893
H       -0.4063480702    2.7417611724   -0.3639347877
H        1.2591279237    0.9219799964   -0.2635785922
14   
Generated by ForceBalance from scan.xyz: Frame 14 of 24
C       -0.0456454110   -1.1327247049   -1.6403617086
C       -0.0728163639   -0.7576962612   -0.1465197237
C       -0.6896241385    1.6968718907   -0.6470569871
C        0.2314133038    0.7239954599    0.0769777801
Cl      -2.4465034944    1.4267256140   -0.3045628640
Cl       0.2426333114    1.0886370640    1.8662089382
H        0.2214775928   -2.1874545410   -1.7580821647
H       -1.0285974989   -1.0065898424   -2.1031288790
H        0.6914731993   -0.5510018417   -2.2052050214
H       -1.0613453741   -0.9544404068    0.2757341847
H        0.6590753270   -1.3412813724    0.4172772633
H       -0.5649236154    1.5829926987   -1.7255236449
H       -0.4679229472    2.7256656878   -0.3646687297
H        1.2487659713    0.9528138913   -0.2570969412
14   
Generated by ForceBalance from scan.xyz: Frame 15 of 24
C       -0.0393007798   -1.1257405210   -1.6363053870
C       -0.0528617448   -0.7448823301   -0.1482832061
C       -0.7179944816    1.7009274979   -0.6427926566
C        0.2233744490    0.7422672591    0.0731586462
Cl      -2.4680373523    1.3957899001   -0.2966826670
Cl       0.2416601972    1.1041507397    1.8629670782
H        0.0121992020   -2.2138405815   -1.7430162151
H       -0.9520069970   -0.7988321951   -2.1434783183
H        0.8259464097   -0.7045744735   -2.1609927488
H       -1.0253557500   -0.9812452592    0.2913599507
H        0.7048469679   -1.3123731631    0.3989266909
H       -0.5931070480    1.5953085472   -1.7221310329
H       -0.5143571600    2.7321977217   -0.3558374429
H        1.2338905042    0.9901639237   -0.2681140465
14   
Generated by ForceBalance from scan.xyz: Frame 16 of 24
C       -0.0237648469   -1.1641816528   -1.6499738913
C       -0.0298012060   -0.7713126310   -0.1668083223
C       -0.7509817406    1.6696411778   -0.6292148267
C        0.2196727976    0.7189607588    0.0577324804
Cl      -2.4893259155    1.3175000680   -0.2715802882
Cl       0.2640266728    1.0654116442    1.8507603300
H       -0.1693181453   -2.2434758270   -1.7527610360
H       -0.8241786516   -0.6683749143   -2.2074209025
H        0.9294125784   -0.9109204088   -2.1289230297
H       -0.9806822413   -1.0498008381    0.2953024834
H        0.7518963120   -1.3228454013    0.3645593541
H       -0.6346143266    1.5917482867   -1.7117842838
H       -0.5671418461    2.6988070869   -0.3221700803
H        1.2191580842    0.9885296822   -0.2993465440
14   
Generated by ForceBalance from scan.xyz: Frame 17 of 24
C       -0.0028643187   -1.1721068722   -1.6509668919
C       -0.0235000944   -0.7533427062   -0.1731096191
C       -0.7935127227    1.6809858172   -0.6144039616
C        0.2076258927    0.7407921729    0.0432781059
Cl      -2.5180022023    1.2921722174   -0.2304286271
Cl       0.2879323602    1.0836443796    1.8367685039
H       -0.3552372927   -2.2015036506   -1.7601053830
H       -0.6339134475   -0.5316361543   -2.2742808607
H        1.0122729229   -1.1212026325   -2.0608356826
H       -0.9639578563   -1.0533194312    0.2961805362
H        0.7655599373   -1.2893258855    0.3633851791
H       -0.6961368521    1.6219405598   -1.6998708003
H       -0.6225658183    2.7090987381   -0.2966551657
H        1.1945039924    1.0265461548   -0.3356463611
14   
Generated by ForceBalance from scan.xyz: Frame 18 of 24
C        0.0085806791   -1.1808166441   -1.6614026169
C       -0.0457052133   -0.7459741651   -0.1844813471
C       -0.8587124463    1.6792088779   -0.5967144211
C        0.1761737074    0.7500391388    0.0255459350
Cl      -2.5630216287    1.2843679891   -0.1376797743
Cl       0.3104502174    1.0948807493    1.8148125374
H       -0.5572823578   -2.1027200686   -1.8169421996
H       -0.3892115568   -0.4216067620   -2.3414280667
H        1.0416262864   -1.3652795070   -1.9753815559
H       -0.9903795051   -1.0462422550    0.2755882853
H        0.7332335304   -1.2747605479    0.3729616053
H       -0.8089517739    1.6131681175   -1.6848013580
H       -0.6800040393    2.7106478456   -0.2943410429
H        1.1463502295    1.0476700434   -0.3862303006
14   
Generated by ForceBalance from scan.xyz: Frame 19 of 24
C        0.0398137270   -1.1737475484   -1.6595151801
C       -0.0100098910   -0.7369440983   -0.1776359346
C       -0.8920995250    1.6640519363   -0.5816440582
C        0.1807945180    0.7657780693    0.0220684589
Cl      -2.5746896799    1.2329287779   -0.0760166359
Cl       0.3434503989    1.1236589028    1.8064729142
H       -0.7242447129   -1.9240243830   -1.8772472635
H       -0.1130008958   -0.3405836936   -2.3524259470
H        1.0134870825   -1.6062362586   -1.9087118474
H       -0.9501103737   -1.0404564613    0.2885924820
H        0.7800314518   -1.2449256333    0.3816701019
H       -0.8694878024    1.5890052818   -1.6700210264
H       -0.7315428469    2.7022131611   -0.2923892317
H        1.1341509057    1.0854568955   -0.4116721359
14   
Generated by ForceBalance from scan.xyz: Frame 20 of 24
C        0.0684094466   -1.1600965387   -1.6628864239
C        0.0342128700   -0.7391861736   -0.1734164412
C       -0.9211432565    1.6280483948   -0.5782082071
C        0.1858715162    0.7696034634    0.0216584156
Cl      -2.5821856626    1.1664902351   -0.0284690453
Cl       0.3569562501    1.1427830897    1.8013266044
H       -0.8520091390   -1.6747032004   -1.9510023133
H        0.1743019078   -0.3052405122   -2.3390417695
H        0.9051997144   -1.8331694758   -1.8673536803
H       -0.9026773552   -1.0464361561    0.2965241997
H        0.8403837659   -1.2270599616    0.3792118154
H       -0.9189689687    1.5263731357   -1.6647966418
H       -0.7817517639    2.6764395847   -0.3159320995
H        1.1241488889    1.1151949865   -0.4246120270
14   
Generated by ForceBalance from scan.xyz: Frame 21 of 24
C       -0.2544224013   -1.1597728517   -1.6278081114
C       -0.5020948642   -0.7038627305   -0.1718518818
C       -0.0809520951    1.7912182336   -0.6836778400
C        0.2596743507    0.5770034510    0.1713964191
Cl      -1.8471876074    2.1844656699   -0.7212999328
Cl       0.0252651749    0.9776988261    1.9373587438
H       -1.1095417410   -0.9162862530   -2.2650988618
H        0.6124204104   -0.6625910573   -2.0774112101
H       -0.0890428569   -2.2383038945   -1.6879134162
H       -1.5630404027   -0.5016228224   -0.0078491872
H       -0.1966365375   -1.4756601881    0.5382119035
H        0.2140170809    1.6060217991   -1.7180761666
H        0.4321854071    2.6797170954   -0.3168532273
H        1.3372787199    0.4143668480    0.0655592146
14   
Generated by ForceBalance from scan.xyz: Frame 22 of 24
C       -0.2573833212   -1.1297056602   -1.6210381225
C       -0.4758652748   -0.7076127962   -0.1554400710
C       -0.1141531999    1.7918052761   -0.6860098807
C        0.2530428051    0.5939131592    0.1798092433
Cl      -1.8901304427    2.1386150917   -0.7324325469
Cl       0.0080745743    1.0008716509    1.9429781537
H       -1.0121092273   -0.6795879844   -2.2732782449
H        0.7183307154   -0.8042399343   -2.0007740825
H       -0.3222417732   -2.2149556474   -1.7345516109
H       -1.5389127626   -0.5451148587    0.0389230110
H       -0.1208985397   -1.4793075459    0.5321416983
H        0.1901465890    1.6039447317   -1.7173714510
H        0.3744623302    2.6964253247   -0.3251535220
H        1.3343465554    0.4559493650    0.0764761044
14   
Generated by ForceBalance from scan.xyz: Frame 23 of 24
C       -0.2536457758   -1.1327109886   -1.6241806983
C       -0.4565153198   -0.7190087393   -0.1585788843
C       -0.1518384447    1.7912056815   -0.6853547649
C        0.2441317343    0.5984539847    0.1740141308
Cl      -1.9350671639    2.0975550682   -0.7268456972
Cl       0.0020582022    0.9936804848    1.9403075985
H       -0.8795015669   -0.5355155086   -2.2949211979
H        0.7873596219   -1.0035021792   -1.9436104938
H       -0.5237745156   -2.1824795681   -1.7683632748
H       -1.5220234277   -0.6021215782    0.0557638997
H       -0.0649320764   -1.4863811078    0.5147464490
H        0.1557323936    1.6146055633   -1.7177903157
H        0.3173579352    2.7048155742   -0.3213254821
H        1.3275875310    0.4846822791    0.0633855196
14   
Generated by ForceBalance from scan.xyz: Frame 24 of 24
C       -0.2428826914   -1.1287401873   -1.6248564574
C       -0.4364929873   -0.7034308850   -0.1633481767
C       -0.1747788974    1.8170448970   -0.6802452964
C        0.2449377926    0.6235082984    0.1665362089
Cl      -1.9637037784    2.0858504138   -0.7218019154
Cl       0.0119095782    1.0049570244    1.9376126799
H       -0.7152895669   -0.4291297539   -2.3207798765
H        0.8187955456   -1.2136438800   -1.8842989809
H       -0.6989981756   -2.1096852285   -1.7896908859
H       -1.5017443120   -0.6260409448    0.0700536260
H       -0.0208015404   -1.4657439827    0.5025759284
H        0.1397242549    1.6602692045   -1.7137287235
H        0.2742399423    2.7357994961   -0.3040509540
H        1.3290575107    0.5268897330    0.0461974802
