29   

C        2.3335972037   -3.4062219495    0.5286265492
C        3.2039061655   -2.6096278761    1.2740075773
C        0.9565749673   -3.2936325543    0.7243298548
C        2.6974110174   -1.7147395468    2.2231506994
C        0.4502604343   -2.3981164222    1.6726592265
C       -0.2471374762   -3.4506574120    5.7174076301
C        0.3228804010   -4.7038073081    5.9530119408
C       -1.2080372174   -4.2946412615    3.6738335126
C        1.3108384069   -1.6114618286    2.4591259217
C       -1.0049370781   -3.2286124469    4.5629215607
C        0.1438796197   -5.7590948662    5.0504439474
C       -0.6352240062   -5.5523174287    3.8976321899
C        0.8672672910   -0.6482524085    3.4698439638
C       -0.3002261262   -0.4753195610    4.1185626354
O       -2.5066525043   -1.5909144348    2.9785982436
O       -2.5447933834   -1.1618839643    5.3760965056
S       -1.7284286282   -1.5861645423    4.2285441009
Cl       0.8870640690   -7.3098404830    5.3764437903
Cl      -0.8973658017   -6.8359417209    2.7367977036
H        2.7235377976   -4.1002642243   -0.2076955139
H        4.2739210218   -2.6848737639    1.1161367914
H        0.2748765689   -3.8915424647    0.1296729525
H        3.3974082085   -1.1091202528    2.7878799135
H       -0.6214499872   -2.3065427856    1.7410167582
H       -0.0982855584   -2.6470618994    6.4334471186
H        0.9142687960   -4.8663552917    6.8463449382
H       -1.8172892890   -4.1500596233    2.7860135515
H        1.6349640816    0.0539303916    3.7785582008
H       -0.4037344641    0.3777537527    4.7720428339
29   

C        2.1690513866   -3.5972726502    0.7251166825
C        3.0586718058   -2.9227930382    1.5638741495
C        0.8132848758   -3.2651530831    0.7446483621
C        2.5900918421   -1.9283867277    2.4300300133
C        0.3447948712   -2.2719800226    1.6116895414
C       -0.1691456716   -3.4037976106    5.6797276103
C        0.4781269142   -4.6266330803    5.8724648498
C       -1.0719515118   -4.2334880857    3.6044219658
C        1.2209392305   -1.6029353583    2.4840970223
C       -0.9360835571   -3.1887682586    4.5303044178
C        0.3687242378   -5.6574922073    4.9310145249
C       -0.4207169195   -5.4592315075    3.7839934928
C        0.7885850688   -0.5637590292    3.4267177528
C       -0.3743241938   -0.4020685206    4.0822573255
O       -2.5617535257   -1.6110056771    3.0121539796
O       -2.5406525673   -1.1982887193    5.4143777374
S       -1.7451094234   -1.5789367707    4.2370829434
Cl       1.2119671726   -7.1672216758    5.2008269540
Cl      -0.5955897449   -6.7115678013    2.5735728088
H        2.5301186656   -4.3685301242    0.0537586647
H        4.1137245273   -3.1716629318    1.5438779693
H        0.1222562899   -3.7700622692    0.0787855815
H        3.2987970542   -1.4212692405    3.0751629126
H       -0.7020220099   -2.0066700280    1.5604665660
H       -0.0712599915   -2.6172252360    6.4229223336
H        1.0776807285   -4.7836244223    6.7612356478
H       -1.6838013958   -4.0928723607    2.7178501810
H        1.5646001323    0.1353654840    3.7213389446
H       -0.5045941464    0.4675006876    4.7084888068
29   

C        1.9380990338   -3.7536339228    0.8707072263
C        2.8029053816   -3.2691417687    1.8552287852
C        0.6794631584   -3.1710493787    0.7059022126
C        2.4073416923   -2.2072085649    2.6767166036
C        0.2813953994   -2.1146427248    1.5324569661
C       -0.1398238776   -3.3675836783    5.6566302163
C        0.5810381824   -4.5522703248    5.8271084583
C       -0.9477422839   -4.1903050237    3.5400935713
C        1.1372304989   -1.6222771799    2.5329554373
C       -0.8945342713   -3.1661958364    4.4966693975
C        0.5573828812   -5.5582757684    4.8530982643
C       -0.2232662604   -5.3772476145    3.6975349236
C        0.7369044206   -0.5324933946    3.4406843584
C       -0.4296955076   -0.3681635046    4.0831935455
O       -2.5559465132   -1.6363754174    2.9677893167
O       -2.5911018858   -1.2456722360    5.3789233480
S       -1.7660105025   -1.5870910202    4.2097950910
Cl       1.4982929116   -7.0145979693    5.0914151262
Cl      -0.2915445560   -6.5995169298    2.4462262838
H        2.2434819948   -4.5764229574    0.2337714394
H        3.7809310422   -3.7190344312    1.9834945905
H        0.0095315188   -3.5349025010   -0.0652323035
H        3.0889033431   -1.8493106259    3.4401334873
H       -0.6899165668   -1.6621692246    1.3679242670
H       -0.1032258240   -2.5969391862    6.4216773299
H        1.1743425036   -4.6970899608    6.7220783953
H       -1.5443691498   -4.0580602035    2.6419689352
H        1.5332554905    0.1330190999    3.7578654048
H       -0.5790121950    0.4982414587    4.7093309862
29   

C        1.8158749995   -3.7925833242    0.9322764850
C        2.6141082958   -3.4116088378    2.0143571634
C        0.6519259279   -3.0760894434    0.6420569814
C        2.2526323354   -2.3112453346    2.8003170364
C        0.2867431665   -1.9818807839    1.4338321574
C       -0.1171214620   -3.3442828838    5.6352972536
C        0.6268670575   -4.5138869609    5.8119175304
C       -0.8664148118   -4.1707445206    3.4984957536
C        1.0907881315   -1.5767877120    2.5123706319
C       -0.8550915600   -3.1525863293    4.4628709078
C        0.6409455666   -5.5153759945    4.8330430189
C       -0.1230684479   -5.3449742977    3.6648866032
C        0.6919943487   -0.4564548508    3.3922654672
C       -0.4509102876   -0.3416796510    4.0807140972
O       -2.5112434213   -1.6507836419    2.9022977107
O       -2.6216678704   -1.2812048033    5.3171594905
S       -1.7586236014   -1.5928290676    4.1671613270
Cl       1.6082312871   -6.9527633088    5.0805781420
Cl      -0.1478386176   -6.5652247210    2.4098019302
H        2.0953599351   -4.6448933060    0.3228508032
H        3.5118430284   -3.9730977593    2.2470505145
H        0.0276447899   -3.3687242534   -0.1948885963
H        2.8752936073   -2.0354945833    3.6438390693
H       -0.6205784242   -1.4358699263    1.1955682042
H       -0.1111253632   -2.5776006109    6.4051193923
H        1.2078550327   -4.6509267790    6.7161775102
H       -1.4460487461   -4.0436675367    2.5885511676
H        1.4824694016    0.2256600702    3.6880528464
H       -0.6121533718    0.5070628873    4.7275944594
29   

C        2.0107182126   -3.2190650529    0.8162129388
C        2.3343850284   -3.9987732460    1.9305489919
C        1.7312569107   -1.8589775567    0.9771391401
C        2.3931614368   -3.4154900668    3.2016116832
C        1.7851524027   -1.2786469734    2.2491345003
C       -0.8275615089   -3.8892633496    4.9297330494
C       -0.9482223030   -5.1645334968    4.3708282619
C       -1.0641274681   -2.9288252115    2.7311137656
C        2.1472752585   -2.0436623913    3.3688127183
C       -0.8644233140   -2.7576200926    4.1087499676
C       -1.1207606528   -5.3351406073    2.9914151377
C       -1.1893251866   -4.2016016821    2.1621392661
C        2.1380856025   -1.4559277123    4.7318931350
C        1.0608777457   -1.0821932333    5.4302754968
O       -0.7977784052   -0.0582947581    3.7559753966
O       -1.5511907706   -0.8753900665    5.9354260137
S       -0.6367693125   -1.0832954969    4.8017049721
Cl      -1.2443847890   -6.9501834550    2.3286034551
Cl      -1.4131993598   -4.3541516111    0.4324356452
H        1.9638240921   -3.6705989011   -0.1686164968
H        2.5318573125   -5.0579090080    1.8098071083
H        1.4653428599   -1.2530020579    0.1181402957
H        2.6279980194   -4.0342144916    4.0602555754
H        1.5479960335   -0.2256452086    2.3669701293
H       -0.6950464926   -3.7785664875    6.0024239037
H       -0.9059861978   -6.0386627233    5.0097256911
H       -1.1068672722   -2.0590317913    2.0815322243
H        3.0454778516   -1.5859612378    5.3127140113
H        1.1559760013   -0.7676003787    6.4582249722
29   

C        2.0518585394   -3.2856470526    0.8651379237
C        2.2538816724   -4.0167124091    2.0398175424
C        1.8741154296   -1.9002840119    0.9297014826
C        2.2877670053   -3.3612636486    3.2760795398
C        1.9096916238   -1.2463676720    2.1663354162
C       -0.7873806088   -3.9666550497    4.9241023274
C       -0.8968765566   -5.2233637446    4.3218746607
C       -1.0393873023   -2.9345747035    2.7591687353
C        2.1401816937   -1.9678322427    3.3463124774
C       -0.8388991453   -2.8085687922    4.1417838484
C       -1.0744036318   -5.3484465273    2.9379565935
C       -1.1566320533   -4.1881401490    2.1478473818
C        2.1264060470   -1.2895134311    4.6700026622
C        1.0602188145   -1.0368348903    5.4342764506
O       -0.9418372791   -0.1052583732    3.8926801287
O       -1.5291066157   -1.0383503012    6.0729049262
S       -0.6621257838   -1.1528463561    4.8894845657
Cl      -1.1881411575   -6.9407738511    2.2208525450
Cl      -1.3895543729   -4.2834402963    0.4151937976
H        2.0203751359   -3.7935709106   -0.0924740510
H        2.3739360862   -5.0931570036    1.9928312718
H        1.7025077750   -1.3320038875    0.0223114110
H        2.4288443655   -3.9387181488    4.1826783057
H        1.7526920065   -0.1733176723    2.2118579343
H       -0.6578528724   -3.8904021350    6.0002657383
H       -0.8454992763   -6.1184306006    4.9304011874
H       -1.0943009436   -2.0433960003    2.1399660709
H        3.0938107183   -1.1826146749    5.1500506734
H        1.1836093674   -0.6703679336    6.4418434606
29   

C        2.8600230273   -4.2600201626    1.9798614225
C        3.1744393394   -4.0890629483    3.3310193859
C        2.1439862534   -3.2681829214    1.3039757784
C        2.7582741725   -2.9364868623    4.0068926939
C        1.7347102411   -2.1145302137    1.9820634225
C       -0.3728059995   -4.1846735625    4.0111987672
C       -0.7524337613   -4.8767206519    2.8606195340
C       -1.7151253414   -2.3090163059    3.3088876353
C        2.0025143710   -1.9545791265    3.3505991127
C       -0.8380125683   -2.8848427584    4.2383502492
C       -1.6022867106   -4.2910063026    1.9160385096
C       -2.0944703915   -2.9924906679    2.1455603460
C        1.6164645780   -0.7049149725    4.0536402430
C        0.6689720958   -0.5680780713    4.9868592657
O       -1.4172381091   -1.3973661695    6.4345615994
O        0.6054252635   -2.7740302605    6.5427963511
S       -0.2684625271   -1.9437292683    5.6956537202
Cl      -2.0271837882   -5.1810081317    0.4702719477
Cl      -3.1581993989   -2.2118091452    0.9955044319
H        3.1780141612   -5.1543486295    1.4555873651
H        3.7429204672   -4.8473361439    3.8578941673
H        1.9054293169   -3.3913798611    0.2534786092
H        3.0106444780   -2.8104841485    5.0554438816
H        1.1848263440   -1.3497155832    1.4449248876
H        0.3035733473   -4.6509977434    4.7231424945
H       -0.3737138777   -5.8771915681    2.6895037480
H       -2.0987670832   -1.3073208712    3.4777789448
H        1.9395922868    0.2200419410    3.5869759565
H        0.3906113022    0.4074954375    5.3549757818
29   

C        2.9290401932   -4.2476098653    2.0036362683
C        3.0994664051   -4.0955991343    3.3821790521
C        2.3185098561   -3.2306987820    1.2649302588
C        2.6400282118   -2.9390194823    4.0219433503
C        1.8679040313   -2.0716380003    1.9067196859
C       -0.3849336438   -4.2079011383    4.0395620062
C       -0.7851420765   -4.8886460583    2.8889468246
C       -1.7158552496   -2.3147419856    3.3639958883
C        1.9831324431   -1.9310626064    3.2986739001
C       -0.8324784493   -2.9041901800    4.2789383911
C       -1.6407805497   -4.2887041994    1.9583908679
C       -2.1174756227   -2.9872104587    2.2021535565
C        1.5350846803   -0.6883072074    3.9660982485
C        0.6707270690   -0.5830064508    4.9832800024
O       -1.3610709071   -1.4303965427    6.4959173187
O        0.6710636826   -2.7938804836    6.5493766026
S       -0.2288683810   -1.9678791447    5.7257984395
Cl      -2.0926720157   -5.1650724098    0.5124368301
Cl      -3.1883815597   -2.1886195120    1.0711054149
H        3.2789140861   -5.1459933589    1.5073515632
H        3.5911422984   -4.8710472839    3.9589849819
H        2.1936265807   -3.3390877208    0.1933683319
H        2.7944573300   -2.8288832233    5.0907521259
H        1.3993189141   -1.2895967737    1.3196718784
H        0.2945042778   -4.6857430982    4.7407578536
H       -0.4187736254   -5.8916929278    2.7063814665
H       -2.0860291680   -1.3096554773    3.5424173047
H        1.7472108787    0.2385119200    3.4429080814
H        0.3834670784    0.3869075443    5.3595981576
29   

C        3.0149122472   -4.1872213171    1.9802648157
C        3.0049938577   -4.0948610468    3.3738407731
C        2.5477924955   -3.1176755062    1.2129963621
C        2.5064765156   -2.9457302140    3.9975422686
C        2.0574941332   -1.9663767199    1.8393698515
C       -0.4479943692   -4.2050269480    4.1420501378
C       -0.8694214308   -4.9267542413    3.0241933248
C       -1.7363394405   -2.3130246486    3.3859775607
C        1.9906428089   -1.8803797955    3.2396474813
C       -0.8632823604   -2.8814782620    4.3237196269
C       -1.7165090583   -4.3494160957    2.0714827272
C       -2.1607378939   -3.0272947511    2.2580799874
C        1.4740279099   -0.6565091255    3.8779540664
C        0.6641752122   -0.5463310133    4.9421104181
O       -1.3770534892   -1.3189240786    6.4779431331
O        0.6332554517   -2.7018732645    6.5964426641
S       -0.2483559793   -1.8974976344    5.7330910115
Cl      -2.2009956794   -5.2803948126    0.6708895352
Cl      -3.2221834177   -2.2560517465    1.0994184638
H        3.3952086854   -5.0797363409    1.4958995804
H        3.3909094058   -4.9100787432    3.9756659866
H        2.5640830341   -3.1797557496    0.1306498567
H        2.5441095584   -2.8846096329    5.0790400407
H        1.6986263888   -1.1464483069    1.2272185654
H        0.2191345369   -4.6688463667    4.8641414812
H       -0.5295629928   -5.9460860478    2.8856296667
H       -2.0837243764   -1.2931996064    3.5214212788
H        1.6416825727    0.2660371914    3.3315326804
H        0.3877911120    0.4310497267    5.3074093335
29   

C        3.0970847516   -4.0153112004    1.7460711459
C        2.7928605151   -4.1407189840    3.1023183690
C        2.9033318086   -2.7901813194    1.1066230416
C        2.2771234725   -3.0503917830    3.8117232414
C        2.3905960391   -1.7005567858    1.8189648586
C       -0.6620431078   -4.3232245476    4.4043363677
C       -1.1016828400   -5.1253060304    3.3497755719
C       -1.5852104383   -2.3906631674    3.2968169760
C        2.0358168978   -1.8186730847    3.1748676121
C       -0.8881816354   -2.9424132583    4.3808497151
C       -1.7767074457   -4.5711327125    2.2560242939
C       -2.0244046119   -3.1862399341    2.2309572115
C        1.4875024921   -0.6491378751    3.8708062028
C        0.6529315345   -0.5596063127    4.9213517992
O       -1.4193111906   -1.2709992202    6.4411945161
O        0.5746699061   -2.6475460506    6.6577919098
S       -0.2820124428   -1.8814107463    5.7366518967
Cl      -2.2982495634   -5.6098749783    0.9474897117
Cl      -2.8655260539   -2.4400903785    0.8893833436
H        3.4928252861   -4.8613774248    1.1952759207
H        2.9660586582   -5.0819573946    3.6116250008
H        3.1485419261   -2.6835899099    0.0558521518
H        2.1024746255   -3.1768429707    4.8707736967
H        2.2458983339   -0.7603812161    1.2984369022
H       -0.1373852151   -4.7734758143    5.2434797564
H       -0.9167993100   -6.1926450542    3.3742268308
H       -1.7857733470   -1.3241623995    3.2686890190
H        1.7119114507    0.3037223920    3.4021901046
H        0.3925833946    0.4183914030    5.2972386668
29   

C        3.3806670014   -3.9246818432    1.7212530769
C        2.8455399841   -4.1400092578    2.9912541371
C        3.3043262754   -2.6551892147    1.1492400375
C        2.2226000431   -3.0939809021    3.6813657899
C        2.6826838701   -1.6103537092    1.8412938400
C       -0.7728008926   -4.3570771505    4.4764181021
C       -1.2969902231   -5.1799893897    3.4776240671
C       -1.7123692366   -2.4364443366    3.3617609005
C        2.1088345871   -1.8098534557    3.1117901053
C       -0.9655519008   -2.9719408305    4.4208600937
C       -2.0253899307   -4.6429839978    2.4096475663
C       -2.2377984048   -3.2533052163    2.3525970747
C        1.4424836690   -0.6768155944    3.7569882841
C        0.6016603581   -0.5815683806    4.8046188615
O       -1.3638962272   -1.2578289728    6.4719180922
O        0.6398073204   -2.6304389117    6.5961999979
S       -0.2716591703   -1.8841206165    5.7123766549
Cl      -2.6582317990   -5.7087585986    1.1738543525
Cl      -3.1446115842   -2.5278329223    1.0426828133
H        3.8607239401   -4.7365825148    1.1862740640
H        2.9207513480   -5.1190668479    3.4507141312
H        3.7248992897   -2.4789313298    0.1655329287
H        1.8696904904   -3.3086119780    4.6765315732
H        2.6331187114   -0.6363153252    1.3673550443
H       -0.2135458199   -4.7955361100    5.2994332307
H       -1.1402943183   -6.2510498115    3.5271330194
H       -1.8896228749   -1.3666158974    3.3103367406
H        1.6438666363    0.2789050866    3.2838412889
H        0.2979161312    0.4025337166    5.1286933769
29   

C        2.8481880755   -2.1839470207    0.3950331323
C        1.4894801632   -2.1392186141    0.7040946499
C        3.7856953415   -1.8738800047    1.3786374091
C        1.0691152271   -1.7926639028    1.9932226473
C        3.3628506973   -1.5271280044    2.6663067080
C       -0.7454909621   -4.1390387403    5.3547663115
C       -0.6956166349   -5.5142411294    5.1169349796
C       -1.5271009628   -3.7960382238    3.1000536710
C        1.9959776804   -1.4836688375    3.0097179211
C       -1.1458968958   -3.2622340171    4.3404426950
C       -1.0500703299   -6.0437098744    3.8705850066
C       -1.4748482381   -5.1732106474    2.8502128251
C        1.6517682300   -1.1550317751    4.3938911743
C        0.5039679391   -1.0449878674    5.0926639046
O       -1.6577010757   -0.7293622847    3.4527457910
O       -2.0535526743   -1.1934596351    5.8132756498
S       -1.2013943508   -1.4623626151    4.6450614017
Cl      -0.9642658190   -7.7726333478    3.6112163075
Cl      -1.9392591742   -5.7804856449    1.2755803019
H        3.1722532638   -2.4542426324   -0.6038593360
H        0.7539849409   -2.3695691276   -0.0585923304
H        4.8441021022   -1.9040269722    1.1453393614
H        0.0083748089   -1.7576117533    2.1580663507
H        4.1200870382   -1.2981645972    3.4078283893
H       -0.4732819188   -3.7521487695    6.3330382535
H       -0.3798167919   -6.1857341691    5.9068022820
H       -1.8749749328   -3.1366186520    2.3097639430
H        2.5183216804   -0.9083509094    4.9986558417
H        0.5668067372   -0.6960269163    6.1123545704
29   

C        2.5835433211   -2.6440036967    0.6440727720
C        1.2602387899   -2.2776915008    0.8889948027
C        3.5492791633   -2.4311156061    1.6274999435
C        0.9003021654   -1.7157603927    2.1189710360
C        3.1870795770   -1.8692480796    2.8566172903
C       -0.4341687811   -4.0699769226    5.3704733560
C       -0.2121829798   -5.4155961425    5.0694334681
C       -1.3731792378   -3.7540029507    3.1726324282
C        1.8521548331   -1.5215584822    3.1399369982
C       -1.0018192403   -3.2200037030    4.4156333534
C       -0.5568697636   -5.9413705790    3.8184535348
C       -1.1486366763   -5.0998621326    2.8590011074
C        1.5406387527   -0.9859316772    4.4666903558
C        0.3870297600   -0.8071182444    5.1389706228
O       -1.8946794023   -0.7562914838    3.6519016987
O       -2.0740484731   -1.3236865024    6.0134145724
S       -1.2700893359   -1.4532638837    4.7886178235
Cl      -0.2496225640   -7.6303159677    3.4772083019
Cl      -1.6050297128   -5.7031517945    1.2805145891
H        2.8605370541   -3.0825812834   -0.3082061109
H        0.5087531044   -2.4198221659    0.1203331465
H        4.5812592061   -2.7057116679    1.4399524728
H       -0.1243814721   -1.4039752844    2.2333439297
H        3.9587356200   -1.7246565303    3.6045073741
H       -0.1627237632   -3.6844154852    6.3494022794
H        0.2339135276   -6.0663883127    5.8121950355
H       -1.8419110236   -3.1164441404    2.4281948258
H        2.4155338990   -0.6874433784    5.0351509012
H        0.4243574699   -0.3031304527    6.0929790128
29   

C        2.3922245034   -2.8199822089    0.7318381058
C        1.1502192439   -2.2082498034    0.9059428782
C        3.3378801008   -2.7640847735    1.7566402550
C        0.8467038009   -1.5625741660    2.1097194451
C        3.0325119147   -2.1158428729    2.9585863681
C       -0.3491938312   -4.0350966999    5.3616458167
C       -0.0403190275   -5.3587962620    5.0397784978
C       -1.2083784263   -3.7159010479    3.1321494767
C        1.7694638624   -1.5350269365    3.1722012215
C       -0.9198573916   -3.1936908067    4.4014526955
C       -0.2995816004   -5.8702216160    3.7622431679
C       -0.8956417207   -5.0384123396    2.7972635407
C        1.4908088535   -0.8916382573    4.4613580667
C        0.3362431087   -0.7085524134    5.1266550653
O       -1.9547691624   -0.7807825293    3.6629166323
O       -2.0837018875   -1.3697210096    6.0241966561
S       -1.2848937650   -1.4484809453    4.7915345229
Cl       0.1196440667   -7.5291354522    3.3942919608
Cl      -1.2449828573   -5.6229956015    1.1847499612
H        2.6247458725   -3.3254135804   -0.1989653150
H        0.4212830480   -2.2248952288    0.1033469171
H        4.3089988142   -3.2269286161    1.6216662521
H       -0.1051104697   -1.0562319193    2.1836240757
H        3.7821455854   -2.0910722869    3.7415820703
H       -0.1407922262   -3.6586273775    6.3593870889
H        0.4091904948   -6.0029056085    5.7861788341
H       -1.6744449085   -3.0838723709    2.3814987139
H        2.3732586697   -0.5903904257    5.0165805073
H        0.3519711710   -0.1584016985    6.0553164183
29   

C        2.1687331035   -2.9018216486    0.7814379283
C        1.0922237157   -2.0191558691    0.8902746215
C        3.0257301374   -3.0847385142    1.8689237722
C        0.8578452998   -1.3431125841    2.0927729486
C        2.7936611640   -2.4012282937    3.0678876365
C       -0.3249204472   -3.9952782402    5.3553722711
C        0.0683472533   -5.2969794884    5.0346721978
C       -1.0389485884   -3.6730784476    3.0757864146
C        1.6814244415   -1.5556637811    3.2119421285
C       -0.8636283607   -3.1620624390    4.3698642881
C       -0.0749187583   -5.7943982999    3.7333993951
C       -0.6423317523   -4.9732019614    2.7426740914
C        1.4503236379   -0.8541780291    4.4870516315
C        0.2923686732   -0.6566461929    5.1360410143
O       -1.9360113441   -0.7791596894    3.5888158407
O       -2.1458789913   -1.3719897979    5.9496274671
S       -1.3003994474   -1.4297526932    4.7470991776
Cl       0.4547790804   -7.4217303663    3.3669779903
Cl      -0.8469942648   -5.5407537504    1.0994541575
H        2.3438310252   -3.4346646594   -0.1466448106
H        0.4379964124   -1.8537467260    0.0414806854
H        3.8696620312   -3.7600322452    1.7841957225
H        0.0355856784   -0.6384518710    2.1398574198
H        3.4684397994   -2.5579320405    3.9019024077
H       -0.2008268215   -3.6269003897    6.3700261437
H        0.4966739909   -5.9335246799    5.7997510378
H       -1.4730971186   -3.0453420757    2.3027933667
H        2.3413607821   -0.6001553413    5.0520193713
H        0.2850762795   -0.1022157668    6.0620836799
29   

C        2.0822592112   -2.9205035594    0.8080789860
C        1.1349089365   -1.8948101789    0.8559528748
C        2.8308779419   -3.2259220210    1.9475714971
C        0.9200584754   -1.1942870457    2.0480045003
C        2.6196552802   -2.5176390799    3.1359871401
C       -0.3175343715   -3.9772586215    5.3581378402
C        0.1024612350   -5.2743162362    5.0517633306
C       -0.9416722094   -3.6589437354    3.0514851962
C        1.6295380704   -1.5256280174    3.2132946678
C       -0.8257679921   -3.1486255318    4.3526589536
C        0.0145715725   -5.7720917199    3.7456357322
C       -0.5219548640   -4.9558051382    2.7339761520
C        1.4232965841   -0.7666093958    4.4665115469
C        0.2768085410   -0.6301812098    5.1448541026
O       -1.8878584499   -0.7789383674    3.5234897797
O       -2.1818356168   -1.3643768403    5.8812617067
S       -1.2939549406   -1.4196253514    4.7094276546
Cl       0.5748951190   -7.3935034214    3.3988958762
Cl      -0.6598222610   -5.5256849623    1.0845328987
H        2.2406255513   -3.4723591412   -0.1118690770
H        0.5642067301   -1.6401565399   -0.0302001582
H        3.5739768363   -4.0144884707    1.9108077578
H        0.1902882550   -0.3909152177    2.0643597124
H        3.2094186289   -2.7646947601    4.0114802802
H       -0.2368170752   -3.6086112479    6.3770446658
H        0.5079704362   -5.9072248776    5.8321736377
H       -1.3467723223   -3.0327042814    2.2616431561
H        2.3194136423   -0.4858275064    5.0103390939
H        0.2565414324   -0.0903587203    6.0791704413
29   

C        2.0488000783   -2.9533208496    0.8544327176
C        1.1968537667   -1.8459093884    0.8292565149
C        2.6895530164   -3.3081287122    2.0445063324
C        0.9729124730   -1.1076883991    1.9966991920
C        2.4671922412   -2.5640081069    3.2086836812
C       -0.2849236583   -4.0057367913    5.3862760738
C        0.1407856462   -5.2971094268    5.0631725644
C       -0.9051271310   -3.6592223004    3.0821990704
C        1.5741603006   -1.4811642216    3.2071219398
C       -0.7954250291   -3.1664485168    4.3908797934
C        0.0548046949   -5.7787802530    3.7507516763
C       -0.4832145554   -4.9514380669    2.7490012413
C        1.3733435136   -0.6667190348    4.4319323276
C        0.2687478577   -0.6225120063    5.1838498702
O       -1.9031381994   -0.8116875821    3.5912035548
O       -2.1625622951   -1.4160059393    5.9499204058
S       -1.2868208305   -1.4483397811    4.7679953473
Cl       0.6191615264   -7.3943252487    3.3838370265
Cl      -0.6215032160   -5.5024864312    1.0931067523
H        2.2150972980   -3.5326406231   -0.0470560991
H        0.7066848935   -1.5581701386   -0.0941646876
H        3.3570408162   -4.1621780795    2.0656539090
H        0.3104412619   -0.2479268027    1.9662185322
H        2.9732993499   -2.8469819357    4.1247110900
H       -0.2090195094   -3.6506881024    6.4103843963
H        0.5473370145   -5.9390309162    5.8356580742
H       -1.3093013420   -3.0230836077    2.2996656015
H        2.2731031322   -0.2896526932    4.9072109488
H        0.2592218321   -0.0871323402    6.1208122140
29   

C        2.0356355167   -3.0830440858    0.8969659552
C        1.2819787507   -1.9141025591    0.7585850029
C        2.5491247415   -3.4333721943    2.1485779152
C        1.0360326527   -1.1028048521    1.8720927091
C        2.3007106944   -2.6198820081    3.2597741398
C       -0.2012883370   -4.0754771056    5.3681915645
C        0.2138418932   -5.3537641806    4.9841856970
C       -0.9319963337   -3.6606495308    3.1075955580
C        1.5203713477   -1.4595771127    3.1377556883
C       -0.7621709411   -3.2088838815    4.4248149816
C        0.0656705713   -5.7951047343    3.6629154124
C       -0.5235061138   -4.9401739339    2.7145425035
C        1.2976309745   -0.5725293548    4.3104135501
C        0.2614730286   -0.5972849427    5.1532333188
O       -2.0377698066   -0.8970768260    3.7856268349
O       -2.0299025650   -1.5395000376    6.1435590957
S       -1.2737271732   -1.5172235007    4.8813659808
Cl       0.6164611810   -7.3957360152    3.2187578786
Cl      -0.7429879075   -5.4415496779    1.0515486402
H        2.2215685756   -3.7159466038    0.0362454578
H        0.8864361062   -1.6353525435   -0.2117553257
H        3.1363807409   -4.3380081073    2.2588234445
H        0.4501718003   -0.1965372164    1.7560026150
H        2.7055774570   -2.8996390965    4.2257722010
H       -0.0833532893   -3.7535100198    6.3993458554
H        0.6576633299   -6.0181609651    5.7160743505
H       -1.3775693769   -3.0029510017    2.3662764565
H        2.1548085663    0.0156358341    4.6220092471
H        0.2688222911    0.0032040282    6.0499197496
29   

C        2.9881515783   -3.5666976949    2.1728050291
C        1.9232693139   -3.0891901512    1.4027269877
C        3.2605408874   -2.9884193117    3.4162893270
C        1.1432099450   -2.0243885056    1.8682491589
C        2.4756641316   -1.9280511352    3.8829638157
C        0.1848014869   -4.2973487516    4.4252414316
C        0.0960049853   -5.3122464969    3.4717544281
C       -1.8028836688   -3.2843043376    3.5117008710
C        1.4311536507   -1.4136391991    3.0994111207
C       -0.7557021605   -3.2619111262    4.4432338373
C       -0.9293384652   -5.3175708281    2.5199085782
C       -1.8947663392   -4.2936882205    2.5436715870
C        0.5522199119   -0.3315478905    3.6110391879
C       -0.3455938780   -0.4263983433    4.5971876953
O       -1.8417935557   -1.7187677128    6.3918478950
O        0.5725491258   -2.0968488536    6.5136380610
S       -0.5917927940   -1.8886542138    5.6350962659
Cl      -0.9836763072   -6.5896205213    1.3192213647
Cl      -3.1977305813   -4.2516178357    1.3758024532
H        3.5962178040   -4.3878588741    1.8099040293
H        1.6975706976   -3.5471179540    0.4461906747
H        4.0777627120   -3.3614867912    4.0235059124
H        0.3099268621   -1.6742211096    1.2692674412
H        2.6831441782   -1.4964203026    4.8574574176
H        1.0001896861   -4.3019052369    5.1441801226
H        0.8394161839   -6.1001563274    3.4593233371
H       -2.5522484104   -2.4986301926    3.5231829367
H        0.4342020421    0.5295643247    2.9612142962
H       -1.0120559393    0.3942740895    4.8142908274
29   

C        3.0343351477   -3.5522555715    2.1470250698
C        2.0379361538   -3.0370524488    1.3130460883
C        3.1976604782   -3.0347238404    3.4349542110
C        1.2137728298   -1.9989771614    1.7625588275
C        2.3668056975   -2.0034729999    3.8866585770
C        0.1735261600   -4.3181931786    4.4772566491
C        0.0775623989   -5.3311050582    3.5221669040
C       -1.8066720172   -3.2903885938    3.5646385661
C        1.3783338008   -1.4600618123    3.0493728685
C       -0.7576431189   -3.2743233193    4.4942158184
C       -0.9487223691   -5.3288111254    2.5711867398
C       -1.9077970563   -4.2992570672    2.5974532583
C        0.4625115355   -0.3997601923    3.5265953024
C       -0.3440239897   -0.4472087316    4.5943177991
O       -1.8150826608   -1.7026038869    6.4362912032
O        0.5987150844   -2.0854735423    6.5375842997
S       -0.5742224894   -1.8877207166    5.6683380115
Cl      -1.0125100980   -6.5987242600    1.3686695314
Cl      -3.2128679270   -4.2478882212    1.4322398508
H        3.6775681867   -4.3516686336    1.7963795673
H        1.9015647514   -3.4433449628    0.3171066113
H        3.9684493670   -3.4297391795    4.0873442651
H        0.4376707445   -1.6176693383    1.1083359086
H        2.5062542444   -1.6111998343    4.8891150386
H        0.9894863148   -4.3289716835    5.1953870176
H        0.8159721707   -6.1236630686    3.5072704670
H       -2.5490038471   -2.4980730480    3.5752259588
H        0.2540312241    0.4019137391    2.8254671023
H       -1.0020545084    0.3788082428    4.8170568959
29   

C        3.1251747654   -3.4630373624    2.0519993467
C        2.2269014768   -2.8435663930    1.1793928338
C        3.1536817772   -3.0893355609    3.3977075501
C        1.3589735640   -1.8526162543    1.6520216687
C        2.2798548030   -2.1046157083    3.8713811321
C        0.1177489278   -4.3457134918    4.5403141463
C        0.0064076734   -5.3766966773    3.6062264826
C       -1.8367224408   -3.2988766434    3.5945681580
C        1.3698433411   -1.4732091673    3.0057975980
C       -0.7925023436   -3.2832996399    4.5294596338
C       -1.0166092147   -5.3758896697    2.6514531569
C       -1.9548241921   -4.3270984206    2.6503658059
C        0.4228466449   -0.4465999240    3.4780043970
C       -0.3341251942   -0.4599271462    4.5854622072
O       -1.8471419981   -1.6608695418    6.4275589044
O        0.5541752194   -2.0834116091    6.5748833613
S       -0.5987867615   -1.8796148957    5.6810663185
Cl      -1.1044362536   -6.6735335894    1.4803733576
Cl      -3.2566615771   -4.2775199161    1.4813693059
H        3.8020377404   -4.2264415086    1.6847420214
H        2.2022983260   -3.1310494484    0.1342532453
H        3.8582648229   -3.5557999405    4.0771895341
H        0.6644646197   -1.3871534450    0.9615352939
H        2.3406381503   -1.8117798983    4.9133897379
H        0.9274897635   -4.3595128422    5.2653867366
H        0.7277763073   -6.1849749193    3.6124482303
H       -2.5640838758   -2.4927549215    3.5849653723
H        0.1867595310    0.3401372932    2.7687105841
H       -0.9732608944    0.3807241719    4.8088718806
29   

C        3.1709191459   -3.2497980978    1.8024392023
C        2.4335796316   -2.4084215959    0.9669412136
C        3.0102795263   -3.1639181352    3.1866752097
C        1.5313385569   -1.4898784386    1.5150425883
C        2.1059625111   -2.2477500804    3.7347245028
C       -0.0113633153   -4.4307006625    4.8309511579
C       -0.1075952124   -5.5448052518    3.9953506581
C       -1.7457816223   -3.3453957807    3.5554139088
C        1.3408195966   -1.4058988107    2.9079785998
C       -0.8215776498   -3.3114870811    4.6089612714
C       -1.0132778051   -5.5691263298    2.9285241840
C       -1.8457131952   -4.4562984047    2.7081056071
C        0.3671113208   -0.4334560458    3.4188229611
C       -0.4028945394   -0.4581983779    4.5205270722
O       -1.9400822582   -1.5965246942    6.3780217596
O        0.4536697625   -1.9720397264    6.6080803949
S       -0.6732350734   -1.8335582749    5.6698560810
Cl      -1.0919276145   -6.9797825074    1.8954882851
Cl      -2.9983528313   -4.4334863751    1.3909234751
H        3.8722363729   -3.9600969135    1.3788191772
H        2.5606103791   -2.4676495559   -0.1081985678
H        3.5959884884   -3.7997616902    3.8409217619
H        0.9669558578   -0.8498686432    0.8459596329
H        2.0454601360   -2.1785331744    4.8119401097
H        0.7007773447   -4.4314643332    5.6524687249
H        0.5290885979   -6.4037419880    4.1709235933
H       -2.3959506706   -2.4941583716    3.3787437992
H        0.1538551779    0.3928323436    2.7482293834
H       -1.0435109188    0.3853570799    4.7291299495
29   

C        3.4309695057   -3.0384375003    1.7169814664
C        2.7783638991   -2.0951135152    0.9223890696
C        3.0886294305   -3.1610235375    3.0642622157
C        1.7791146221   -1.2848498101    1.4726140760
C        2.0883247939   -2.3519982905    3.6145692709
C       -0.0853141687   -4.4934607123    4.9036887726
C       -0.2661498681   -5.6471053993    4.1381849893
C       -1.8701077940   -3.4261113779    3.6835494926
C        1.4007154955   -1.4117926201    2.8253416686
C       -0.8789412895   -3.3638747244    4.6732825670
C       -1.2419095666   -5.7017536596    3.1359804445
C       -2.0565225235   -4.5774686150    2.9080655579
C        0.3485800079   -0.5186111927    3.3172241204
C       -0.4185660792   -0.5318434065    4.4236353826
O       -1.8681469998   -1.5486760769    6.4138003663
O        0.5268960555   -1.9594677200    6.5402534346
S       -0.6437115087   -1.8425031603    5.6543296264
Cl      -1.4305903376   -7.1645983411    2.1936128396
Cl      -3.2965066628   -4.5918415216    1.6724510466
H        4.2077236691   -3.6651751772    1.2930538775
H        3.0476347534   -1.9895360364   -0.1225659573
H        3.6092074269   -3.8755588365    3.6918301240
H        1.2896659753   -0.5606513894    0.8308963797
H        1.9020656619   -2.4519077980    4.6713821853
H        0.6749661914   -4.4749991655    5.6807217467
H        0.3558504227   -6.5154653061    4.3204231733
H       -2.5101400155   -2.5676581520    3.5040645313
H        0.1160294862    0.3028129639    2.6471307602
H       -1.0905355905    0.2962375435    4.5921741932
29   

C        2.4819178640   -3.0791150995    0.2049435188
C        3.2901641372   -2.1584030184    0.8721387183
C        1.1566240143   -3.2505987508    0.6058365371
C        2.7752897848   -1.4186723338    1.9424313075
C        0.6408294724   -2.5111067988    1.6760103134
C       -0.4140363909   -3.5261039106    5.7936475491
C        0.0228054427   -4.8116721904    6.1210150245
C       -1.3634219862   -4.3894915882    3.7525705866
C        1.4434006004   -1.5927882359    2.3768946470
C       -1.0982249563   -3.2986590499    4.5944492946
C       -0.2191679111   -5.8948202593    5.2678420567
C       -0.9248226541   -5.6811121741    4.0697367406
C        1.0039482807   -0.7582949509    3.4965637351
C       -0.1472019334   -0.6230432418    4.1848405518
O       -2.3009302325   -1.6018470793    2.8262127731
O       -2.5593569679   -1.1116254855    5.1998537086
S       -1.6605607494   -1.6181803941    4.1517502735
Cl       0.3541076557   -7.4880892395    5.7112891632
Cl      -1.2634970427   -6.9995497028    2.9692817771
H        2.8777810442   -3.6522829995   -0.6261119122
H        4.3180227393   -2.0149925961    0.5583560837
H        0.5191022500   -3.9525013861    0.0798472092
H        3.4295154106   -0.7090417642    2.4364906905
H       -0.3962130472   -2.6639916258    1.9128299396
H       -0.2202668260   -2.7025269295    6.4753797960
H        0.5568263981   -4.9785119502    7.0491599900
H       -1.9213660034   -4.2399529652    2.8321757432
H        1.7625356870   -0.0603345164    3.8356041818
H       -0.2049168194    0.1583281203    4.9275830836
