23   

C        5.7000755668    1.7601347316    0.0651260688
C        4.7727958473    2.0879335810   -0.9234750065
C        5.4856962552    0.6379471775    0.8650419314
C        3.6365486255    1.2927406435   -1.1114235844
C        4.3483811097   -0.1559902610    0.6748456704
C        3.3976863882    0.1482551491   -0.3220298855
C        1.3271205985   -0.6474683441   -1.5649269876
C        2.1983112263   -0.6870352723   -0.5130619146
C        0.1893295748   -1.5998828829   -1.3690929228
C        1.7411792988   -1.7138808513    0.5142638396
C        0.8296649887   -2.5755037614   -0.3730190129
H        6.5809391915    2.3747737003    0.2124362516
H        4.9310783484    2.9611494989   -1.5460213267
H        6.2017460236    0.3795921967    1.6368690073
H        2.9307522890    1.5782134775   -1.8807910551
H        4.2253213884   -1.0150425552    1.3200155985
H        1.4460469299   -0.0290615244   -2.4462085025
H       -0.1207210732   -2.0964806017   -2.2939306945
H       -0.6560383603   -1.0753282996   -0.9117123439
H        1.1672629219   -1.2168773587    1.3029118478
H        2.5466293058   -2.3177180636    0.9402634263
H        0.1019139068   -3.1676721885    0.1907865694
H        1.4694297066   -3.2584781204   -0.9423989962
23   

C        5.6768146420    1.7464653604    0.0663755630
C        4.6710317512    2.1521741391   -0.8121171216
C        5.5466155806    0.5398168963    0.7560034370
C        3.5390799002    1.3507647163   -0.9997260304
C        4.4134015392   -0.2601907561    0.5663103848
C        3.3879415249    0.1268787584   -0.3171525404
C        1.4073552166   -0.7592733701   -1.6286893068
C        2.1913202213   -0.7122278493   -0.5124870485
C        0.2405453623   -1.6769435142   -1.4357665947
C        1.6315449795   -1.6215807353    0.5725220574
C        0.7812581509   -2.5580452312   -0.2999917043
H        6.5546022252    2.3656602381    0.2129476487
H        4.7652973165    3.0897324634   -1.3480411641
H        6.3255395812    0.2201636916    1.4388381068
H        2.7649184452    1.6874918509   -1.6782473204
H        4.3486895603   -1.1935283035    1.1098473892
H        1.6160266554   -0.2267356493   -2.5491333297
H       -0.0028081000   -2.2581752026   -2.3307477074
H       -0.6294574833   -1.1019090091   -1.1019357881
H        1.0014530039   -1.0384323853    1.2516817648
H        2.3876857944   -2.1785067369    1.1317792741
H       -0.0005708394   -3.0849264471    0.2561578966
H        1.4534015353   -3.2995047880   -0.7453734848
23   

C        5.6715286394    1.7392459316    0.0766125495
C        4.6016840552    2.2066501477   -0.6904666260
C        5.6122688696    0.4645684663    0.6454861569
C        3.4763862531    1.3981967030   -0.8885834560
C        4.4853321173   -0.3417255901    0.4452615758
C        3.4032627972    0.1089207824   -0.3287415061
C        1.4999341026   -0.8738956066   -1.6800243717
C        2.2086362474   -0.7352390689   -0.5238182256
C        0.3048702690   -1.7533114077   -1.4791704489
C        1.5561086867   -1.5166423168    0.6072323220
C        0.7491211090   -2.5248246177   -0.2259434425
H        6.5440588032    2.3639268043    0.2310825040
H        4.6414449728    3.1964942068   -1.1306290069
H        6.4400703330    0.0985295954    1.2420535906
H        2.6477969337    1.7728420605   -1.4777238540
H        4.4581799382   -1.3294166811    0.8888179767
H        1.7823389467   -0.4282253030   -2.6269006886
H        0.1115553451   -2.4174279561   -2.3274560818
H       -0.5744115155   -1.1367850831   -1.2651696561
H        0.8932160268   -0.8567097658    1.1758939930
H        2.2678540050   -2.0140032357    1.2723188903
H       -0.0795191553   -2.9828818090    0.3233245193
H        1.4351064051   -3.3159170251   -0.5475875730
23   

C        5.6727792240    1.7299640352    0.0826622391
C        4.5442565943    2.2474517004   -0.5592960340
C        5.6771271567    0.4011705648    0.5163995601
C        3.4240556432    1.4345542003   -0.7686015091
C        4.5548572144   -0.4087352266    0.3048735445
C        3.4191384829    0.0935790363   -0.3472131755
C        1.5876312268   -0.9997404419   -1.7197316631
C        2.2247493325   -0.7562099141   -0.5408781989
C        0.3652109587   -1.8380335154   -1.5063873249
C        1.4884616942   -1.4034335867    0.6223556556
C        0.7139751637   -2.4810371096   -0.1532828419
H        6.5411514360    2.3581357272    0.2461313867
H        4.5347263075    3.2788518399   -0.8928253923
H        6.5492206740   -0.0027504327    1.0178130071
H        2.5478429890    1.8419093998   -1.2591665238
H        4.5645956845   -1.4374881327    0.6450257977
H        1.9365896181   -0.6509150381   -2.6849692772
H        0.2123231664   -2.5842452498   -2.2923751908
H       -0.5134196678   -1.1910302173   -1.4144354478
H        0.8065839674   -0.6780425974    1.0774575382
H        2.1545806225   -1.8350055328    1.3756370769
H       -0.1567525933   -2.8676493594    0.3857169926
H        1.4019948186   -3.3110821998   -0.3468598749
23   

C        5.6787567206    1.7211404844    0.0742852377
C        4.4947347876    2.2797992311   -0.4160838689
C        5.7376572621    0.3528330189    0.3553528375
C        3.3731114612    1.4688605389   -0.6258677611
C        4.6136698537   -0.4545843972    0.1434443555
C        3.4231676683    0.0917078029   -0.3552662704
C        1.6766395517   -1.1363759798   -1.7350637908
C        2.2263393877   -0.7610091579   -0.5477672208
C        0.4325146761   -1.9410261646   -1.5172721566
C        1.4050403639   -1.2720187919    0.6261761707
C        0.6768074609   -2.4281992640   -0.0783253658
H        6.5480943666    2.3477455181    0.2386252725
H        4.4436309576    3.3409633472   -0.6315720408
H        6.6528092099   -0.0833088125    0.7392692916
H        2.4539454709    1.9044905333   -0.9997590327
H        4.6609104383   -1.5140929775    0.3662146086
H        2.1008983152   -0.9018391355   -2.7046966248
H        0.3272101049   -2.7706920982   -2.2233298514
H       -0.4429139094   -1.2847383018   -1.5621288923
H        0.7002015647   -0.4992766062    0.9490865254
H        2.0164429147   -1.6166868368    1.4659471660
H       -0.2341535675   -2.7499032004    0.4362764473
H        1.3682350516   -3.2763196148   -0.1274548382
23   

C        5.6882178409    1.7088269779    0.0661723385
C        4.4587921540    2.3004167469   -0.2393998504
C        5.7850309219    0.3174733175    0.1655009505
C        3.3289180960    1.4996500358   -0.4439795983
C        4.6526523835   -0.4796643204   -0.0406493460
C        3.4149758020    0.1014554919   -0.3468766136
C        1.7771337293   -1.2719816296   -1.7288600069
C        2.2139742305   -0.7465139839   -0.5519983296
C        0.5176190780   -2.0564475058   -1.5272333300
C        1.2995216499   -1.1329829327    0.6001637133
C        0.6369876178   -2.3712051689   -0.0256461966
H        6.5640567449    2.3274090774    0.2263294063
H        4.3794692203    3.3787525840   -0.3169815066
H        6.7363387076   -0.1446860007    0.4032713907
H        2.3759566151    1.9590612916   -0.6789765042
H        4.7289433597   -1.5577908451    0.0386934867
H        2.2934185150   -1.1601525909   -2.6755109922
H        0.4725992612   -2.9632430100   -2.1384857723
H       -0.3497887793   -1.4173915315   -1.7230534702
H        0.5668808349   -0.3384871823    0.7737192336
H        1.8410234103   -1.3715055669    1.5209575663
H       -0.3146693047   -2.6417331954    0.4426735626
H        1.3312667398   -3.2113111463    0.0835427990
23   

C        5.6974679183    1.6997455628    0.0681332767
C        4.4409292210    2.3021559573   -0.0451210914
C        5.8121313305    0.3088454434   -0.0163924171
C        3.3015368006    1.5124576115   -0.2394701665
C        4.6702397431   -0.4774465364   -0.2113718488
C        3.4037715480    0.1132658971   -0.3173723764
C        1.8792819033   -1.3988019507   -1.6767168781
C        2.1991330858   -0.7226865353   -0.5393253872
C        0.6034964174   -2.1629440890   -1.5024107196
C        1.1828758464   -0.9847798282    0.5616839568
C        0.5827565971   -2.2965686773    0.0302041839
H        6.5808901232    2.3097450705    0.2193142854
H        4.3482987918    3.3804734531    0.0162726698
H        6.7851117655   -0.1614773656    0.0685580809
H        2.3288188655    1.9812283225   -0.3312327259
H        4.7618317110   -1.5552198143   -0.2783658437
H        2.4914373041   -1.4106463545   -2.5713225908
H        0.6125633979   -3.1360666790   -2.0032937834
H       -0.2396643116   -1.5580702024   -1.8522095422
H        0.4349994755   -0.1856490851    0.5725926163
H        1.6378561145   -1.1055554623    1.5498400796
H       -0.4082225866   -2.5206339120    0.4375222177
H        1.2645196466   -3.1094825747    0.3024175099
23   

C        5.6962213997    1.6878903245    0.0836162273
C        4.4270530880    2.2708553084    0.1409377502
C        5.8216011456    0.3186330687   -0.1687043114
C        3.2858875338    1.4831937795   -0.0508619532
C        4.6781332504   -0.4661858726   -0.3602663631
C        3.3980327187    0.1026655345   -0.2941189738
C        1.9615429216   -1.5213247192   -1.6083904917
C        2.1942385425   -0.7234049831   -0.5290747895
C        0.6624044757   -2.2516227129   -1.4650599913
C        1.0815261581   -0.8594184213    0.4997002853
C        0.5095633160   -2.2182099280    0.0649718863
H        6.5810553384    2.2966315138    0.2315857954
H        4.3258603052    3.3332622336    0.3311254335
H        6.8044573605   -0.1360393388   -0.2174374484
H        2.3041467925    1.9403862102   -0.0137022229
H        4.7808714856   -1.5266663503   -0.5581725764
H        2.6487935863   -1.6408070899   -2.4381583066
H        0.6974309137   -3.2733476506   -1.8559465999
H       -0.1372552101   -1.6814198333   -1.9493823216
H        0.3467463618   -0.0606647869    0.3577635588
H        1.4467224511   -0.8730370433    1.5314606154
H       -0.5157323871   -2.3907939412    0.4072091098
H        1.1537025975   -3.0002324196    0.4812771979
23   

C        5.6998774786    1.6831597291    0.0962357115
C        4.4271420796    2.2238788781    0.2977756527
C        5.8330915795    0.3508027341   -0.3040734303
C        3.2903226880    1.4312886120    0.1007393514
C        4.6942994320   -0.4395480804   -0.5004813540
C        3.4092259711    0.0860422064   -0.2939578817
C        2.0302401626   -1.6366422809   -1.5401408701
C        2.2093248496   -0.7377691223   -0.5305899238
C        0.7051102769   -2.3234136067   -1.4213370835
C        1.0170345369   -0.7455788117    0.4153739512
C        0.4444041283   -2.1318437197    0.0815500228
H        6.5811837393    2.2961300904    0.2477603958
H        4.3194198071    3.2582114618    0.6038398637
H        6.8187669077   -0.0712983342   -0.4634007190
H        2.3071760841    1.8613651567    0.2504865785
H        4.8084385715   -1.4715292101   -0.8101362564
H        2.7670168354   -1.8531171584   -2.3050593662
H        0.7408996248   -3.3800622761   -1.7044634579
H       -0.0424356937   -1.7900597133   -2.0178899813
H        0.3154161792    0.0459617098    0.1336769765
H        1.3009196095   -0.6570186145    1.4687971488
H       -0.6066768204   -2.2505366456    0.3631058801
H        1.0379952790   -2.8777335819    0.6212035682
23   

C        5.6957963774    1.6863171376    0.1004698847
C        4.4270078500    2.1640460756    0.4371802931
C        5.8339448815    0.4047499270   -0.4381765675
C        3.2988524127    1.3603006975    0.2353977367
C        4.7042965741   -0.3973709816   -0.6392753910
C        3.4209505649    0.0658961469   -0.3031922162
C        2.0802899751   -1.7491759622   -1.4654975526
C        2.2279696074   -0.7665864348   -0.5296377703
C        0.7306886915   -2.3903967647   -1.3695967428
C        0.9755226386   -0.6562886704    0.3280681760
C        0.3825429637   -2.0528898696    0.0882675024
H        6.5700694103    2.3083596777    0.2557376246
H        4.3151609555    3.1590245037    0.8526816163
H        6.8169380368    0.0304113326   -0.7003097365
H        2.3217670823    1.7500772146    0.4939060074
H        4.8304773913   -1.3903973135   -1.0527015180
H        2.8472749773   -2.0509331411   -2.1689209030
H        0.7529356021   -3.4695230805   -1.5511374543
H        0.0377420344   -1.8980578044   -2.0599491070
H        0.3184421961    0.1216184926   -0.0737107724
H        1.1899031172   -0.4766924023    1.3863540558
H       -0.6872865206   -2.1184202627    0.3103061576
H        0.9181566378   -2.7590131468    0.7320670268
23   

C        5.6947394286    1.6944068190    0.0997639254
C        4.4420153656    2.0987428059    0.5655031895
C        5.8244373952    0.4752435825   -0.5684966463
C        3.3210436618    1.2850893368    0.3627961628
C        4.7026292110   -0.3374082217   -0.7706665287
C        3.4325919138    0.0533148632   -0.3090337852
C        2.1245526000   -1.8511900223   -1.3734918467
C        2.2461631201   -0.7920407375   -0.5187855407
C        0.7528031635   -2.4477417170   -1.3109429593
C        0.9427880510   -0.5740788432    0.2370283480
C        0.3209950564   -1.9697855282    0.0824626939
H        6.5629724146    2.3245623556    0.2562360105
H        4.3365777630    3.0453313581    1.0832006179
H        6.7954539348    0.1567671925   -0.9301939891
H        2.3615324577    1.6294748752    0.7276691244
H        4.8315229485   -1.2809336789   -1.2851705674
H        2.9165870929   -2.2346103657   -2.0049963215
H        0.7539129977   -3.5392218566   -1.3925640130
H        0.1214783869   -2.0042586667   -2.0880460537
H        0.3394746040    0.1825192993   -0.2748566058
H        1.0873850675   -0.3117117804    1.2897580219
H       -0.7626757685   -1.9862357720    0.2358238224
H        0.7897388616   -2.6284421579    0.8216896960
23   

C        5.6966357897    1.7040391997    0.0909297434
C        4.4764710940    2.0273511119    0.6868301348
C        5.7968030559    0.5600767697   -0.7024655851
C        3.3582652788    1.2080694924    0.4905651557
C        4.6784619218   -0.2586460284   -0.8984036537
C        3.4395211056    0.0501590050   -0.3058373391
C        2.1688912270   -1.9405268978   -1.2601649314
C        2.2580617444   -0.8081433185   -0.4991277687
C        0.7812326180   -2.5015873775   -1.2474169049
C        0.9101780687   -0.4979625792    0.1382523226
C        0.2601844414   -1.8871767575    0.0578625398
H        6.5621869366    2.3389059080    0.2431899397
H        4.3939044367    2.9159575280    1.3022558554
H        6.7422817951    0.3049094564   -1.1673196626
H        2.4306459640    1.4995937189    0.9649212623
H        4.7885403282   -1.1392207977   -1.5173912881
H        2.9906165292   -2.3992874264   -1.7957089210
H        0.7592859483   -3.5957405675   -1.2278366288
H        0.2213435171   -2.1206513479   -2.1079316067
H        0.3672687921    0.2268599335   -0.4768281750
H        0.9769300511   -0.1591267234    1.1762682555
H       -0.8319686593   -1.8650123221    0.1275494395
H        0.6515317412   -2.4866238671    0.8870398442
23   

C        5.7164260014    1.7160804798    0.0825562143
C        4.5492035052    1.9500570021    0.8116680084
C        5.7606962153    0.6627852879   -0.8322388200
C        3.4279244986    1.1318844830    0.6278450680
C        4.6395304214   -0.1548286895   -1.0155515857
C        3.4543747442    0.0641956737   -0.2890751920
C        2.2240664439   -1.9977582427   -1.1289719833
C        2.2742189628   -0.7995502354   -0.4736592417
C        0.8305338420   -2.5420336366   -1.1692403014
C        0.8901452267   -0.4153842120    0.0318861634
C        0.2218460219   -1.7988069968    0.0268045400
H        6.5841920202    2.3500235111    0.2257950406
H        4.5108366544    2.7672426279    1.5229576890
H        6.6640628437    0.4783990171   -1.4023731787
H        2.5469949504    1.3495838223    1.2157228817
H        4.6993312003   -0.9601004743   -1.7362671623
H        3.0797553496   -2.5122465128   -1.5488170347
H        0.7889174757   -3.6288500060   -1.0460611376
H        0.3441539088   -2.2414874087   -2.1030969698
H        0.4086791095    0.2569475008   -0.6854132319
H        0.8763077711    0.0132420683    1.0372160170
H       -0.8717901619   -1.7571410240    0.0071972196
H        0.5349656981   -2.3222901485    0.9366756897
23   

C        5.7117928193    1.7123697500    0.0764975855
C        4.6054549482    1.8532403237    0.9171515609
C        5.6920140855    0.7547774190   -0.9398089226
C        3.4807989648    1.0381480536    0.7413303565
C        4.5668221026   -0.0594311381   -1.1141462371
C        3.4431219064    0.0702795317   -0.2797042664
C        2.2559553478   -2.0536837241   -0.9949807590
C        2.2651530760   -0.7983991961   -0.4587912149
C        0.8650979610   -2.6011235663   -1.0756974181
C        0.8517030630   -0.3605040485   -0.1013692837
C        0.1784313138   -1.7384827648   -0.0067396392
H        6.5828873776    2.3431787312    0.2131872783
H        4.6184310787    2.5929202447    1.7095360154
H        6.5482432763    0.6423732508   -1.5950575474
H        2.6448575312    1.1632283762    1.4167638859
H        4.5667548077   -0.7919845286   -1.9119031186
H        3.1419994055   -2.6004907697   -1.2954013557
H        0.8087452095   -3.6695095149   -0.8445640428
H        0.4463394772   -2.3991715401   -2.0670914120
H        0.4300788954    0.2263315420   -0.9236782802
H        0.7707306460    0.1856642543    0.8418892328
H       -0.9109586484   -1.7014097287   -0.1068228506
H        0.4252379116   -2.1630309415    0.9724126408
23   

C        5.7101106788    1.7100144925    0.0784404995
C        4.6682979089    1.7507719785    1.0088052571
C        5.6254706615    0.8524250195   -1.0216173373
C        3.5426793145    0.9364979462    0.8367961046
C        4.4987844163    0.0389630902   -1.1911485955
C        3.4396109017    0.0748100277   -0.2706976421
C        2.2809696864   -2.1019568273   -0.8541029489
C        2.2654581360   -0.8032193318   -0.4396165551
C        0.8918197159   -2.6476458236   -0.9741830796
C        0.8376129369   -0.3191486278   -0.2340058953
C        0.1432135634   -1.6771864290   -0.0463643239
H        6.5825248813    2.3398275314    0.2112019574
H        4.7328726489    2.4105042478    1.8665475268
H        6.4327143691    0.8163926509   -1.7442302218
H        2.7489165001    0.9690282224    1.5729529184
H        4.4420653515   -0.6217766916   -2.0480071593
H        3.1830729795   -2.6727272733   -1.0421522818
H        0.8072561355   -3.6869372195   -0.6414080318
H        0.5435790608   -2.5449766429   -2.0072460203
H        0.4842662974    0.1808863130   -1.1414346182
H        0.7096197323    0.3289695039    0.6377167940
H       -0.9362993684   -1.6453108331   -0.2246676661
H        0.3178643229   -2.0010473547    0.9853721428
23   

C        5.7078806680    1.7095627007    0.0826530661
C        4.7418448050    1.6384747807    1.0904813401
C        5.5474664700    0.9627928593   -1.0882164426
C        3.6157112069    0.8238209809    0.9242837420
C        4.4201291832    0.1487128754   -1.2511997671
C        3.4370423665    0.0768424907   -0.2538317657
C        2.2890284154   -2.1397035176   -0.6998578602
C        2.2632693699   -0.8078743272   -0.4153209700
C        0.9027053437   -2.6804156959   -0.8679222914
C        0.8345858116   -0.2877179694   -0.3678701500
C        0.1043047061   -1.6133902193   -0.0999808991
H        6.5807708506    2.3398108046    0.2101005172
H        4.8656063187    2.2115688406    2.0022753882
H        6.2966116773    1.0126791863   -1.8701384293
H        2.8744297942    0.7646182180    1.7124073807
H        4.3017154712   -0.4304748930   -2.1594280189
H        3.1949560516   -2.7310452465   -0.7688667730
H        0.7757411830   -3.6800050504   -0.4404996486
H        0.6330209040   -2.6789798440   -1.9292037770
H        0.5588418720    0.1244551770   -1.3437530570
H        0.6635764928    0.4463039775    0.4254973393
H       -0.9583267041   -1.5884702572   -0.3614125822
H        0.1962020775   -1.8341610894    0.9689654099
23   

C        5.7068002034    1.7083559213    0.0888031967
C        4.8291342340    1.5056555301    1.1580058024
C        5.4610851956    1.0881420069   -1.1399721681
C        3.7061961241    0.6858448357    0.9954004053
C        4.3371032299    0.2685105068   -1.2985200901
C        3.4445102499    0.0644123029   -0.2375125344
C        2.2776963212   -2.1741967576   -0.5290592768
C        2.2654146535   -0.8187333144   -0.4041561714
C        0.8936690312   -2.7039659408   -0.7447087122
C        0.8530743617   -0.2675306500   -0.5254935841
C        0.0687320438   -1.5403666540   -0.1677726340
H        6.5768155292    2.3432440293    0.2128201961
H        5.0182516213    1.9816342550    2.1134110132
H        6.1410012973    1.2409106869   -1.9703253870
H        3.0294425421    0.5257297071    1.8265217226
H        4.1502827939   -0.2131016667   -2.2512016041
H        3.1702552347   -2.7850474902   -0.4555291115
H        0.7062119744   -3.6454123326   -0.2188775024
H        0.7063961110   -2.8189721431   -1.8174592137
H        0.6620570126    0.0368691140   -1.5594445576
H        0.6479447796    0.5550485848    0.1666920235
H       -0.9699745846   -1.5258806706   -0.5127885338
H        0.0731124131   -1.6385494047    0.9231667358
23   

C        5.7076595476    1.7143699842    0.0998460582
C        4.9332300617    1.3507933660    1.2056504573
C        5.3667783271    1.2452026980   -1.1724357022
C        3.8195270993    0.5196815908    1.0366584415
C        4.2524052375    0.4136837919   -1.3367522168
C        3.4681396699    0.0426152271   -0.2364538470
C        2.2543596326   -2.1909839855   -0.3551209650
C        2.2821843361   -0.8317888254   -0.4169077549
C        0.8711616895   -2.7076322003   -0.6045482078
C        0.9008259448   -0.2623437947   -0.7007623089
C        0.0502645006   -1.4577825186   -0.2411796883
H        6.5699868035    2.3587499958    0.2285100940
H        5.1939947871    1.7125092381    2.1937192336
H        5.9644497897    1.5255169229   -2.0322771400
H        3.2189072774    0.2392822804    1.8940297077
H        3.9891416442    0.0520656003   -2.3238493309
H        3.1147845017   -2.8085099343   -0.1237343435
H        0.6138959535   -3.5685516860    0.0204112430
H        0.7556221646   -2.9542802453   -1.6651784588
H        0.7866334965   -0.0864588358   -1.7750662091
H        0.6825104911    0.6468399041   -0.1318121204
H       -0.9614886762   -1.4609782050   -0.6589145023
H       -0.0228626552   -1.4141827998    0.8508262920
23   

C        5.6953568170    1.7202538928    0.1125864144
C        5.0284120301    1.1929461980    1.2223381419
C        5.2570734511    1.4039468260   -1.1768197387
C        3.9263489223    0.3491941337    1.0401660595
C        4.1547372212    0.5591648730   -1.3541579713
C        3.4830149147    0.0170012399   -0.2500041438
C        2.2157021363   -2.1860917424   -0.1939612010
C        2.2960650298   -0.8501953583   -0.4424731742
C        0.8359469683   -2.6977360674   -0.4705069238
C        0.9529046346   -0.2895329777   -0.8851059800
C        0.0361283459   -1.3909830555   -0.3284895505
H        6.5483115166    2.3748985691    0.2515203296
H        5.3622695119    1.4390534508    2.2238794705
H        5.7690624692    1.8141357536   -2.0397960161
H        3.4058751628   -0.0531678319    1.9013631012
H        3.8143730864    0.3196213973   -2.3547259057
H        3.0329820079   -2.7846965753    0.1919181532
H        0.5097868614   -3.4627973944    0.2409956547
H        0.7819954483   -3.0780591516   -1.4959792656
H        0.9083322055   -0.2553506025   -1.9782156513
H        0.7317643115    0.6926270861   -0.4555409699
H       -0.9475261748   -1.4245647639   -0.8074949611
H       -0.1023893952   -1.2004429243    0.7412119997
23   

C        5.6868737677    1.7271452284    0.1227810607
C        5.1243416510    1.0569875661    1.2128884844
C        5.1477222685    1.5509925710   -1.1549107475
C        4.0265358129    0.2095543460    1.0225660558
C        4.0500085951    0.7021723378   -1.3412207087
C        3.4840031792    0.0134044768   -0.2588623392
C        2.1739391415   -2.1486281198   -0.0576691025
C        2.3008388837   -0.8513616009   -0.4529803963
C        0.8053715851   -2.6712012871   -0.3668955223
C        0.9990084558   -0.3301332469   -1.0435278310
C        0.0254882980   -1.3467499896   -0.4259963576
H        6.5365480392    2.3845963695    0.2684012184
H        5.5354489554    1.1957470340    2.2062920232
H        5.5779768160    2.0731557921   -2.0018714694
H        3.5866218924   -0.3002322063    1.8716326092
H        3.6329907379    0.5730950806   -2.3330204340
H        2.9486582719   -2.7094366588    0.4526190277
H        0.4182045327   -3.3461453002    0.4028475225
H        0.8104765210   -3.1647366163   -1.3444093651
H        1.0238822857   -0.4228681767   -2.1338637487
H        0.7706393025    0.6980724079   -0.7456081610
H       -0.9262780701   -1.4217105223   -0.9614029460
H       -0.1762426175   -1.0327327920    0.6038078293
23   

C        5.6793236386    1.7305648273    0.1299011591
C        5.2141311487    0.9461469242    1.1886440959
C        5.0409392045    1.6701119341   -1.1117768333
C        4.1142715815    0.1004074410    1.0029612280
C        3.9414108013    0.8229291797   -1.2943881239
C        3.4691876097    0.0196370864   -0.2447253227
C        2.1209053531   -2.1025523071    0.0729356692
C        2.2924859941   -0.8486042713   -0.4338548388
C        0.7719356122   -2.6466424985   -0.2820173242
C        1.0423499095   -0.3878491906   -1.1694172031
C        0.0143888976   -1.3310975842   -0.5253197062
H        6.5307858838    2.3864190155    0.2722478495
H        5.7026312172    0.9946933446    2.1551457894
H        5.3963411335    2.2802517288   -1.9342965794
H        3.7532881377   -0.4956352472    1.8326135042
H        3.4527512296    0.7849739346   -2.2606872073
H        2.8497588632   -2.6199140827    0.6860595957
H        0.3229789901   -3.2412214630    0.5197762455
H        0.8408237727   -3.2332926223   -1.2041032602
H        1.1452604225   -0.5931855233   -2.2396531958
H        0.8029864670    0.6661842216   -0.9965575509
H       -0.8982852414   -1.4534117844   -1.1170932448
H       -0.2548224480   -0.9152470402    0.4516774622
23   

C        5.7052457092    1.7363025288    0.0562544845
C        5.0120945901    1.7605288133   -1.1559705079
C        5.2386837190    0.9411112783    1.1054091119
C        3.8531983778    0.9920259600   -1.3164087780
C        4.0792054162    0.1737232305    0.9426172164
C        3.3636531262    0.1897129285   -0.2672796349
C        1.1059396913   -0.3838515652   -1.2740067873
C        2.1527460967   -0.6308468774   -0.4338707671
C        0.0714718666   -1.4623464214   -1.1817871392
C        1.9406126267   -1.9410672215    0.3108802689
C        0.9367287781   -2.6105431339   -0.6398213648
H        6.6030077428    2.3309936573    0.1817991333
H        5.3730587835    2.3727897489   -1.9744800613
H        5.7745721709    0.9181543427    2.0474437125
H        3.3342072249    1.0142359226   -2.2667433633
H        3.7314920961   -0.4339825071    1.7691968863
H        1.0413412624    0.4644466154   -1.9451102829
H       -0.3833558707   -1.7062267214   -2.1469934723
H       -0.6966070884   -1.1765885459   -0.4554617173
H        1.4837951509   -1.7435085746    1.2858716344
H        2.8568895880   -2.5295293195    0.4219573023
H        0.3578375588   -3.4126915910   -0.1712360111
H        1.5003267977   -3.0299295222   -1.4803275611
23   

C        5.7040909011    1.7436291989    0.0606753851
C        4.9430100131    1.8737484825   -1.1018616958
C        5.3130933598    0.8336277426    1.0439230729
C        3.7936892227    1.0947467247   -1.2794182368
C        4.1631769508    0.0557811466    0.8644466052
C        3.3793782981    0.1687438242   -0.3003233518
C        1.1696896421   -0.4686780153   -1.3865465559
C        2.1709597129   -0.6530664534   -0.4754842674
C        0.1025682592   -1.5087476777   -1.2414705312
C        1.8821376580   -1.8757538466    0.3841812108
C        0.9059399626   -2.6148394273   -0.5428896336
H        6.5943967389    2.3465316406    0.1994664535
H        5.2429559057    2.5781701229   -1.8692867886
H        5.8998215038    0.7300183460    1.9495579849
H        3.2258968367    1.2108702625   -2.1936281750
H        3.8821648807   -0.6347845403    1.6496904069
H        1.1486374677    0.3118872557   -2.1371781361
H       -0.3099791436   -1.8388448800   -2.2000256881
H       -0.6926966369   -1.1333578184   -0.5889520152
H        1.3863374332   -1.5687309763    1.3106604284
H        2.7703678968   -2.4785855462    0.5977852104
H        0.2819858099   -3.3504112133   -0.0254430513
H        1.4967931626   -3.1317929314   -1.3068587185
23   

C        5.6942837518    1.7499829544    0.0641568897
C        4.8542865317    1.9846111028   -1.0241031341
C        5.3885983280    0.7274509419    0.9620054095
C        3.7135819957    1.1960431672   -1.2138379133
C        4.2471193285   -0.0598899524    0.7703089306
C        3.3840991549    0.1506362763   -0.3256557798
C        1.2336731464   -0.5614509426   -1.4899179394
C        2.1803592564   -0.6780998488   -0.5108310367
C        0.1310569716   -1.5570485829   -1.3065365135
C        1.8152727150   -1.8086268234    0.4413892663
C        0.8611279309   -2.6071524000   -0.4592292971
H        6.5781345846    2.3600210444    0.2126804980
H        5.0848166015    2.7796120187   -1.7240701617
H        6.0354270620    0.5431043150    1.8121906018
H        3.0827422754    1.4058768134   -2.0675669604
H        4.0438876009   -0.8353181500    1.4970392290
H        1.2700501038    0.1424048544   -2.3120312642
H       -0.2374391891   -1.9702188380   -2.2507504564
H       -0.6877061371   -1.1005127513   -0.7406187664
H        1.2888509002   -1.4043408104    1.3119382634
H        2.6674680966   -2.4219110559    0.7488288851
H        0.1882457518   -3.2700832617    0.0938547265
H        1.4719659665   -3.2143000181   -1.1361124808
