22   

C        1.8248827749   -0.2121662920    0.1148658762
C        0.5379470263   -0.4647972317    0.5829363086
C        2.9238848282   -0.4465867413    0.9438792493
C        0.3549000530   -0.9564640322    1.8761669279
C        2.7602446371   -0.9282505904    2.2537354472
C        1.4486030620   -1.1953777796    2.7263996452
C        3.9531985060   -1.1290921218    3.0993932345
C        5.2694877430   -0.8026800157    2.8750549637
C        1.1965874201   -1.7555930337    4.1062545574
C        6.3746217888   -1.6108833429    2.2243155503
H        1.9733981717    0.1683535557   -0.8891568279
H       -0.3191151699   -0.2827031660   -0.0554251218
H        3.9191017097   -0.2409380484    0.5679798938
H       -0.6528908326   -1.1552555296    2.2218560942
H        3.7263841119   -1.2972993561    4.1443396208
H        5.7071074620   -0.3760458418    3.7714239432
H        1.7808537274   -2.6690588324    4.2547551535
H        1.4749561538   -1.0210669976    4.8678664950
H        0.1401397349   -2.0062567989    4.2406425260
H        7.1789192802   -1.8079307525    2.9396542692
H        5.9808418904   -2.5673948459    1.8673887620
H        6.7859283623   -1.0617548613    1.3724203738
22   

C        1.9195372984   -0.2860677420    0.1157437081
C        0.6179739323   -0.5043749774    0.5594832922
C        2.9930244688   -0.4848916122    0.9864188988
C        0.3947322910   -0.9256817477    1.8709111955
C        2.7888643338   -0.8920198415    2.3165916628
C        1.4619654326   -1.1244651652    2.7639513119
C        3.9509288606   -1.0579426601    3.2115149556
C        5.2683485942   -0.7942056483    2.9670551580
C        1.1680474165   -1.6252961094    4.1582541332
C        6.2419611261   -1.5944965357    2.1295795955
H        2.0992195521    0.0408988255   -0.9019523717
H       -0.2191686774   -0.3514739227   -0.1121088648
H        3.9982511773   -0.3033085815    0.6259912704
H       -0.6236217882   -1.1034779481    2.1964837328
H        3.7000195808   -1.1350302334    4.2618594747
H        5.7846570658   -0.4505011048    3.8570425664
H        1.7621794028   -2.5198068624    4.3702819246
H        1.4043477990   -0.8518763471    4.8949385900
H        0.1123088902   -1.8922650016    4.2639735729
H        7.0958048116   -1.9114282424    2.7360247254
H        5.7496895570   -2.4842241983    1.7249174587
H        6.6064392236   -0.9858358056    1.2969833699
22   

C        1.9927581018   -0.3619956066    0.1189148622
C        0.6818459806   -0.5518843963    0.5465563889
C        3.0474268152   -0.5123109226    1.0216407190
C        0.4303493509   -0.8946649435    1.8752170821
C        2.8154364435   -0.8377613234    2.3709119676
C        1.4779258368   -1.0394563542    2.8012759479
C        3.9496860461   -0.9540397934    3.3096488035
C        5.2718480682   -0.8033437466    3.0405424708
C        1.1545090578   -1.4750182934    4.2108557696
C        6.1010109956   -1.6096942927    2.0681300118
H        2.1944482755   -0.0929139862   -0.9115198136
H       -0.1403982954   -0.4385388533   -0.1507936582
H        4.0566533054   -0.3452791478    0.6677460410
H       -0.5946654955   -1.0564508463    2.1879226394
H        3.6901004665   -0.9442102276    4.3609109017
H        5.8580978063   -0.5220576629    3.9087354838
H        1.7631351331   -2.3423928398    4.4858568738
H        1.3495371113   -0.6595769472    4.9132036330
H        0.1034567288   -1.7660247113    4.2986751135
H        6.9727835048   -2.0336936629    2.5754750174
H        5.5075464082   -2.4288534020    1.6500871497
H        6.4464583009   -0.9707037310    1.2502314905
22   

C        2.0315764311   -0.4120939367    0.1272130831
C        0.7161733300   -0.5864571040    0.5452133608
C        3.0750980141   -0.5219795528    1.0483295512
C        0.4489115189   -0.8701618954    1.8840637568
C        2.8291929341   -0.7905430184    2.4091641409
C        1.4847418487   -0.9707724632    2.8290885208
C        3.9408906428   -0.8659347598    3.3788418925
C        5.2662531168   -0.8478981216    3.1106868506
C        1.1427139986   -1.3566778825    4.2488155030
C        5.9805488523   -1.6240643588    2.0322286914
H        2.2457115616   -0.1835973562   -0.9104886984
H       -0.0970789641   -0.5059572620   -0.1670876368
H        4.0826762768   -0.3536982691    0.6938646129
H       -0.5795585928   -1.0227453079    2.1898827756
H        3.6779577115   -0.7956281435    4.4271095870
H        5.8950184790   -0.6396202453    3.9695871824
H        1.7610703800   -2.2015979377    4.5686986516
H        1.3092509306   -0.5112849071    4.9222523685
H        0.0960948300   -1.6656659966    4.3281050131
H        6.8488613755   -2.1387271201    2.4544540423
H        5.3151937914   -2.3739321924    1.5928313568
H        6.3262361569   -0.9467490210    1.2458323206
22   

C        2.0514308411   -0.4427993230    0.1339117570
C        0.7360732300   -0.6096510238    0.5525224133
C        3.0926150555   -0.5192091259    1.0608075976
C        0.4664251868   -0.8487118217    1.8989487380
C        2.8468140678   -0.7478440385    2.4304152912
C        1.4996286222   -0.9132149999    2.8501341819
C        3.9458931223   -0.7887228665    3.4177773021
C        5.2640742623   -0.9128678013    3.1642209043
C        1.1524222665   -1.2620506601    4.2783252465
C        5.8994606687   -1.6321136966    2.0022226780
H        2.2676370363   -0.2429574716   -0.9092705448
H       -0.0750642146   -0.5562961400   -0.1647242728
H        4.0944193610   -0.3417773335    0.6978160604
H       -0.5622999874   -0.9966207473    2.2060995606
H        3.6851884256   -0.6743497790    4.4628071601
H        5.9149905991   -0.7797569349    4.0215140976
H        1.7807313685   -2.0877527978    4.6278415199
H        1.2999154428   -0.3948142497    4.9278041772
H        0.1105470450   -1.5865790081    4.3583516120
H        6.7629879504   -2.2065772150    2.3506488454
H        5.1927876154   -2.3294685535    1.5416132557
H        6.2455590322   -0.9134034567    1.2536422092
22   

C        2.0589565310   -0.4695173369    0.1371595935
C        0.7442383584   -0.6217950947    0.5611661524
C        3.1013168492   -0.5247786634    1.0640620940
C        0.4763809808   -0.8223166207    1.9137024070
C        2.8595696995   -0.7188581567    2.4407434345
C        1.5106911835   -0.8638904566    2.8651073484
C        3.9528406501   -0.7386497734    3.4356488000
C        5.2544893322   -0.9988925713    3.2117394484
C        1.1619805921   -1.1791046330    4.3009084231
C        5.8636128270   -1.6272916029    1.9867068803
H        2.2740575860   -0.2952432923   -0.9108337068
H       -0.0676210007   -0.5858074320   -0.1563455116
H        4.0981880762   -0.3479871844    0.6897966955
H       -0.5523096659   -0.9596215854    2.2257650803
H        3.6935171979   -0.5970877767    4.4776946531
H        5.9035376255   -0.9427696201    4.0788854838
H        1.7912270035   -1.9950784794    4.6711180405
H        1.3058431271   -0.2963730618    4.9298640950
H        0.1210658550   -1.5052760277    4.3867297095
H        6.7333884584   -2.2248236128    2.2757067916
H        5.1512965798   -2.2945921231    1.4919198328
H        6.2003993618   -0.8553047299    1.2886233378
22   

C        2.0532990094   -0.4959712020    0.1369286515
C        0.7393739815   -0.6229818605    0.5700872551
C        3.0995632958   -0.5402243428    1.0599456894
C        0.4762451404   -0.7858015197    1.9281955173
C        2.8641086041   -0.6975869135    2.4429809536
C        1.5145001028   -0.8147247871    2.8758497252
C        3.9580651193   -0.7077045078    3.4381311429
C        5.2327158947   -1.0947516037    3.2469790540
C        1.1671105730   -1.0964051040    4.3190884252
C        5.8574555298   -1.6106930191    1.9790487789
H        2.2651111503   -0.3489536931   -0.9159025601
H       -0.0753797635   -0.5964789751   -0.1445504397
H        4.0930326738   -0.3780624030    0.6721612946
H       -0.5523323267   -0.9050837759    2.2478715886
H        3.6995710220   -0.5504366095    4.4780611572
H        5.8641614476   -1.1146818289    4.1286066287
H        1.7896994216   -1.9104990073    4.7045212950
H        1.3203288719   -0.2021989385    4.9292261475
H        0.1238437851   -1.4122671789    4.4144210168
H        6.7474864463   -2.1980028123    2.2239322857
H        5.1674947927   -2.2669889793    1.4401126974
H        6.1692290024   -0.7794760816    1.3398306173
22   

C        2.0640205784   -0.4110136112    0.1476717483
C        0.7498632461   -0.4545124836    0.5977294282
C        3.0964899688   -0.8750917745    0.9645896106
C        0.4724303554   -0.9691003261    1.8624594254
C        2.8446591691   -1.4084809087    2.2465575105
C        1.4961266236   -1.4572459085    2.6933967802
C        3.9260596001   -1.9396228117    3.1032682177
C        5.2378426250   -1.6446831955    3.0370857067
C        1.1405625604   -1.9136111081    4.0890283680
C        5.8809450618   -0.4963587654    2.3060412440
H        2.2859341266   -0.0287547596   -0.8420567380
H       -0.0541199900   -0.0892786033   -0.0311177567
H        4.0916100515   -0.8675575771    0.5465433084
H       -0.5550067429   -0.9774410990    2.2070508328
H        3.6500214163   -2.5881475251    3.9256845385
H        5.8745128173   -2.1602706841    3.7478429620
H        1.2486574830   -2.9983498207    4.1736050504
H        1.7910822749   -1.4257109151    4.8222389245
H        0.1096453859   -1.6432981314    4.3368127370
H        6.2014048913   -0.8101159099    1.3082581570
H        5.1959678617    0.3535948784    2.2293330655
H        6.7656918830   -0.1617541545    2.8558940360
22   

C        2.0566629278   -0.4295248518    0.1344551746
C        0.7415559950   -0.4568930447    0.5849948014
C        3.0866630673   -0.8776292734    0.9635152483
C        0.4608274563   -0.9365719777    1.8632066657
C        2.8291081864   -1.3790193285    2.2561006250
C        1.4821338404   -1.4070935106    2.7069894785
C        3.9150337739   -1.8907034038    3.1183492119
C        5.2400121978   -1.6998802725    2.9590494615
C        1.1262315106   -1.8322838501    4.1121631856
C        5.9150569331   -0.5078940355    2.3307756808
H        2.2809870529   -0.0706320570   -0.8634355851
H       -0.0607413986   -0.1050263992   -0.0535524886
H        4.0872956213   -0.8771088072    0.5565903307
H       -0.5668652275   -0.9326452382    2.2071931803
H        3.6361152868   -2.5178481439    3.9562197046
H        5.8739867108   -2.2782150386    3.6223505444
H        1.2370184314   -2.9146607374    4.2210863796
H        1.7754867991   -1.3269006372    4.8345009182
H        0.0941624655   -1.5597629295    4.3525648584
H        6.2481224233   -0.7501383044    1.3173221821
H        5.2381333393    0.3515164211    2.2985190924
H        6.7918229837   -0.2258313302    2.9213785954
22   

C        2.0352318886   -0.4546906345    0.1101619691
C        0.7212579409   -0.4759646428    0.5666962913
C        3.0708569390   -0.8685377081    0.9502106312
C        0.4475107032   -0.9115666762    1.8627449169
C        2.8177360668   -1.3290617652    2.2572417952
C        1.4748749445   -1.3453398095    2.7186115926
C        3.9198344465   -1.7996901563    3.1208236859
C        5.2469771090   -1.7224261708    2.8729396210
C        1.1286463152   -1.7325875938    4.1369538204
C        5.9987333743   -0.5274471151    2.3412925180
H        2.2541157896   -0.1246792672   -0.8988341284
H       -0.0857438467   -0.1519175361   -0.0805862290
H        4.0766137194   -0.8643917966    0.5532182676
H       -0.5790901140   -0.9035490729    2.2099993318
H        3.6424200472   -2.3893325104    3.9858673067
H        5.8584524803   -2.3632207335    3.4989715257
H        1.2605975074   -2.8088278525    4.2792269302
H        1.7695490148   -1.1929969773    4.8416956769
H        0.0914193647   -1.4739006465    4.3702206627
H        6.3314420837   -0.7162834349    1.3164405948
H        5.3633149877    0.3637093331    2.3536735597
H        6.8782993457   -0.3323236449    2.9621062303
22   

C        1.9952049033   -0.4814851883    0.0805885746
C        0.6846638006   -0.4949758153    0.5493593164
C        3.0403532864   -0.8578096185    0.9266930736
C        0.4241184175   -0.8818811418    1.8640881525
C        2.7983672414   -1.2711830044    2.2498843775
C        1.4616330027   -1.2749765207    2.7272109406
C        3.9214517437   -1.6985684586    3.1090830210
C        5.2419759419   -1.7308743493    2.7963906330
C        1.1311876633   -1.6211785076    4.1597443366
C        6.1077973731   -0.5631689280    2.3833631955
H        2.2037882453   -0.1844778758   -0.9407616419
H       -0.1301207121   -0.2015501527   -0.1027565839
H        4.0490067027   -0.8525707390    0.5339025886
H       -0.5998086309   -0.8695537879    2.2191040172
H        3.6461375841   -2.2442421409    4.0030056815
H        5.8073874611   -2.4416619442    3.3893960668
H        1.2881711518   -2.6889603685    4.3370841169
H        1.7639882072   -1.0445058049    4.8419598204
H        0.0891907926   -1.3795767561    4.3899206701
H        6.4485050774   -0.6952886461    1.3523221250
H        5.5434011556    0.3721047063    2.4518666792
H        6.9827130850   -0.4915592232    3.0364616840
22   

C        1.9200661800   -0.5440152219    0.0378622913
C        0.6193377999   -0.5406294860    0.5345737691
C        2.9856714355   -0.8611143995    0.8827951961
C        0.3892255050   -0.8493885790    1.8758030226
C        2.7739010709   -1.1922928157    2.2327078900
C        1.4482355575   -1.1778064332    2.7398996363
C        3.9266234170   -1.5531267161    3.0810851179
C        5.2385905003   -1.6996196582    2.7315325726
C        1.1486710158   -1.4590201975    4.1933395791
C        6.2506737079   -0.6176219663    2.4240520013
H        2.1050770415   -0.3046470682   -1.0029897017
H       -0.2117091327   -0.2953494469   -0.1169020343
H        3.9901218484   -0.8656750480    0.4773079102
H       -0.6279283031   -0.8296647407    2.2495185214
H        3.6619218629   -2.0203424731    4.0211702341
H        5.7294443079   -2.4713512123    3.3148674225
H        1.3489484457   -2.5095040424    4.4237700985
H        1.7673948832   -0.8240060076    4.8352364144
H        0.1003738442   -1.2481892257    4.4249768597
H        6.6080701730   -0.7220253004    1.3955097913
H        5.7940172140    0.3703403680    2.5384818509
H        7.1048285617   -0.6900044057    3.1040918000
22   

C        1.8227540899   -0.6027079896   -0.0001904178
C        0.5374362385   -0.5835101582    0.5352589075
C        2.9157765872   -0.8693496753    0.8269891462
C        0.3502300277   -0.8251859994    1.8969618578
C        2.7473863716   -1.1288996072    2.1976765631
C        1.4377707685   -1.0987987226    2.7446362081
C        3.9329503842   -1.4362005917    3.0214303385
C        5.2415866369   -1.6451174488    2.6562640925
C        1.1825044013   -1.3240867306    4.2161782546
C        6.3814341860   -0.6558966561    2.5141390567
H        1.9745324981   -0.4142851291   -1.0567763705
H       -0.3150633123   -0.3791527126   -0.1024727867
H        3.9096269312   -0.8857961296    0.3956667096
H       -0.6559381898   -0.7985112029    2.2989262277
H        3.6956183028   -1.8247949769    4.0034293917
H        5.6518326647   -2.4888310064    3.2011036694
H        1.4254762113   -2.3558663292    4.4872196670
H        1.7932884855   -0.6402226421    4.8137685313
H        0.1326579542   -1.1418312231    4.4643311271
H        6.7883479235   -0.6992454416    1.4997518482
H        6.0234136265    0.3603910727    2.7048037001
H        7.1804266086   -0.8853437606    3.2257537946
