26   
Generated by ForceBalance from scan.xyz: Frame 1 of 15
C        0.3054762129   -0.4760748024   -0.3027933807
C        7.4788378502   -0.2934908301    4.8628391267
C        1.4855097332    0.2349794487   -0.0396963132
C       -0.1502681437   -1.4199945143    0.6243851182
C        6.9826663552   -0.7734596026    3.6419049022
C        6.5858897793    0.1948625562    5.8233164059
C        2.2009110782    0.0016100634    1.1313913535
C        0.5609128507   -1.6517980226    1.8020157516
C        5.6144867572   -0.7601991732    3.3855947996
C        5.2136952254    0.2034509931    5.5714689111
C        1.7419217659   -0.9349446795    2.0873292042
C        4.6975707677   -0.2883288725    4.3541982531
C        2.4376097912   -1.1515483669    3.3572829463
C        3.2500796820   -0.3257621338    4.1367681764
H       -0.2548877384   -0.2895505940   -1.2150502843
H        8.5465759629   -0.3085424073    5.0646576617
H        1.8423453045    0.9749554508   -0.7519348307
H       -1.0649308869   -1.9745186375    0.4303947039
H        7.6688633900   -1.1610635991    2.8928406238
H        6.9604395612    0.5670304490    6.7735462836
H        3.1046040986    0.5688616501    1.3402331627
H        0.1947399830   -2.3819159652    2.5205312768
H        5.2330187004   -1.1510662814    2.4455427207
H        4.5272099162    0.5779465080    6.3276937322
H        1.6763070512   -1.5822138560    4.0191960856
H        2.8185161425   -0.2978832214    5.1448138640
26   
Generated by ForceBalance from scan.xyz: Frame 2 of 15
C        0.5404026857   -0.4786651027   -0.3099321954
C        7.4017270033   -0.2371689609    4.6478121274
C        1.6998204438    0.2158647076    0.0642967359
C       -0.0154702885   -1.4133014307    0.5702322609
C        6.8082187333   -0.7407062557    3.4812368641
C        6.5895287443    0.2353361828    5.6842933317
C        2.2963421545   -0.0240675468    1.2993703317
C        0.5787345848   -1.6527565527    1.8100942047
C        5.4221023792   -0.7676349197    3.3518178868
C        5.1999832439    0.2059032311    5.5579979697
C        1.7370586981   -0.9534901319    2.2057626523
C        4.5882051539   -0.3088178810    4.3969351591
C        2.3031591079   -1.1803296901    3.5392687423
C        3.1259291432   -0.3847065777    4.3186123963
H        0.0732895910   -0.2866580490   -1.2722325688
H        8.4836641255   -0.2214806515    4.7489955747
H        2.1335640867    0.9495198757   -0.6108226663
H       -0.9152710322   -1.9554146864    0.2905300054
H        7.4326914303   -1.1169268082    2.6745999961
H        7.0398288327    0.6256640279    6.5934967728
H        3.1822190025    0.5338276033    1.5914207949
H        0.1367579427   -2.3773523533    2.4905671689
H        4.9688970033   -1.1794358149    2.4538477727
H        4.5755065622    0.5702796699    6.3708196944
H        1.5015979417   -1.5959487244    4.1593642565
H        2.7502591571   -0.3667794845    5.3473536514
26   
Generated by ForceBalance from scan.xyz: Frame 3 of 15
C        0.7540227939   -0.4733925259   -0.3064280435
C        7.3250498275   -0.1960840555    4.4524758625
C        1.8603128745    0.2407451126    0.1749401482
C        0.1407369409   -1.4255141162    0.5145373871
C        6.6569690033   -0.7626126489    3.3578103189
C        6.5827736253    0.2982045007    5.5301436482
C        2.3510838800    0.0024159206    1.4565576552
C        0.6294134533   -1.6629521160    1.8002139357
C        5.2657715340   -0.8285451344    3.3374914990
C        5.1888168260    0.2296761056    5.5124362904
C        1.7372670033   -0.9493023998    2.3005710355
C        4.5026497956   -0.3418679163    4.4217904282
C        2.1831580841   -1.1832362847    3.6795195389
C        3.0394918692   -0.4517754391    4.4675231481
H        0.3710959283   -0.2825559007   -1.3054782726
H        8.4107484668   -0.1493563188    4.4672857699
H        2.3360189781    0.9904941513   -0.4525459420
H       -0.7201556193   -1.9823363281    0.1531570373
H        7.2268469325   -1.1592337209    2.5210905692
H        7.0906673380    0.7359590089    6.3858308213
H        3.1942912656    0.5781680056    1.8272126256
H        0.1438047176   -2.4016375717    2.4342980375
H        4.7597749473   -1.2905783839    2.4946598027
H        4.6188230546    0.6118479837    6.3565863254
H        1.3494750273   -1.5890348046    4.2595210740
H        2.7135494501   -0.4378877285    5.5113969550
26   
Generated by ForceBalance from scan.xyz: Frame 4 of 15
C        0.9425677758   -0.4619151266   -0.2889926827
C        7.2458896632   -0.1707666403    4.2820951722
C        1.9806546883    0.2851004589    0.2846773819
C        0.2966683369   -1.4392889533    0.4749010138
C        6.5245109042   -0.8108512495    3.2649096822
C        6.5613854763    0.3571815578    5.3815055496
C        2.3751425684    0.0530992130    1.6006525364
C        0.6887704966   -1.6690772286    1.7948563625
C        5.1370863770   -0.9144190572    3.3394172799
C        5.1716600504    0.2499105694    5.4587798752
C        1.7331473021   -0.9291370042    2.3847261861
C        4.4319337776   -0.3872667625    4.4424104714
C        2.0722477920   -1.1659128237    3.7954234415
C        2.9765767456   -0.5276293742    4.5951040238
H        0.6360348864   -0.2762059619   -1.3150429405
H        8.3283433152   -0.0943220166    4.2214277279
H        2.4784990652    1.0570201935   -0.2970615895
H       -0.5140263820   -2.0208281074    0.0431921094
H        7.0498526833   -1.2371252838    2.4137747278
H        7.1103201198    0.8503319548    6.1797900519
H        3.1662909600    0.6536336465    2.0388814994
H        0.1780469728   -2.4275381241    2.3844375994
H        4.5932229689   -1.4314575147    2.5548808702
H        4.6466380265    0.6584882105    6.3196699430
H        1.2071331031   -1.5545946637    4.3371749042
H        2.7003723501   -0.5245647091    5.6518411658
26   
Generated by ForceBalance from scan.xyz: Frame 5 of 15
C        1.1177194307   -0.4487628556   -0.2699501002
C        7.1700492327   -0.1492643743    4.1238705295
C        2.0818345425    0.3343238155    0.3791566170
C        0.4528881713   -1.4503346554    0.4443975370
C        6.4146498219   -0.8635057315    3.1840031439
C        6.5314487904    0.4126373653    5.2337757516
C        2.3869202280    0.1129974138    1.7208399998
C        0.7551254929   -1.6682659527    1.7901225832
C        5.0374749505   -1.0057496786    3.3429420962
C        5.1523726971    0.2658881640    5.3961304408
C        1.7308564102   -0.8981437000    2.4529201201
C        4.3782722717   -0.4382306034    4.4529855975
C        1.9778081076   -1.1317102303    3.8850696819
C        2.9363932139   -0.6092100946    4.6942701585
H        0.8814848958   -0.2717324742   -1.3159833885
H        8.2441642140   -0.0425133235    3.9965365307
H        2.5914429739    1.1268598309   -0.1633143306
H       -0.3029179861   -2.0592146758   -0.0453080765
H        6.9054272675   -1.3185727839    2.3271948194
H        7.1074553037    0.9619884658    5.9741901821
H        3.1227095140    0.7391796965    2.2151238781
H        0.2300053331   -2.4458575651    2.3409481243
H        4.4681454179   -1.5769500371    2.6166871669
H        4.6627127833    0.7012116384    6.2647945315
H        1.0875513463   -1.4941830765    4.4011932348
H        2.6984440873   -0.6267226095    5.7588658171
26   
Generated by ForceBalance from scan.xyz: Frame 6 of 15
C        1.2669213198   -0.4418179367   -0.2449141966
C        7.0969532252   -0.1315733522    3.9925233846
C        2.1656630004    0.3730919258    0.4561725401
C        0.5857819207   -1.4566363015    0.4344108504
C        6.3232365008   -0.9042104444    3.1163296714
C        6.4933695680    0.4490513259    5.1122802579
C        2.3925325629    0.1689420115    1.8163850768
C        0.8089116993   -1.6562655677    1.7986434601
C        4.9602728628   -1.0838911824    3.3473728052
C        5.1290348801    0.2630571306    5.3463300855
C        1.7244372075   -0.8588764594    2.5116147502
C        4.3346705475   -0.4932925287    4.4635820812
C        1.8974717575   -1.0806789140    3.9581562965
C        2.9080072388   -0.6951200967    4.7726542423
H        1.0923273116   -0.2788619118   -1.3052794025
H        8.1595192043    0.0055670320    3.8093334358
H        2.6852717023    1.1767551259   -0.0597503011
H       -0.1212842939   -2.0892371942   -0.0963355669
H        6.7879376490   -1.3752341466    2.2536372373
H        7.0849710387    1.0426165671    5.8047432193
H        3.0797878246    0.8168477668    2.3505828764
H        0.2720766350   -2.4443504214    2.3226311863
H        4.3758297706   -1.6970609021    2.6692096987
H        4.6664389250    0.7133796401    6.2221397538
H        0.9867188756   -1.4142210027    4.4560654923
H        2.6996986496   -0.7394926677    5.8418939530
26   
Generated by ForceBalance from scan.xyz: Frame 7 of 15
C        1.3741730779   -0.4496741619   -0.2225840173
C        7.0366979622   -0.1081116178    3.9033576316
C        2.2341334082    0.3857904328    0.5019019209
C        0.6709426822   -1.4574180123    0.4447654049
C        6.2589922592   -0.9148309792    3.0626429872
C        6.4543145962    0.4645852955    5.0383857435
C        2.4021836136    0.2070778241    1.8746693089
C        0.8341204692   -1.6301532175    1.8214468135
C        4.9108064394   -1.1346297580    3.3432579037
C        5.1056061347    0.2370330524    5.3228253449
C        1.7150086333   -0.8157118196    2.5569122643
C        4.3061037898   -0.5490437492    4.4725014654
C        1.8378587037   -1.0165489958    4.0133602846
C        2.8927851185   -0.7840488366    4.8243794472
H        1.2458343201   -0.3081744229   -1.2926259179
H        8.0871164028    0.0617312223    3.6814188875
H        2.7698834745    1.1844822849   -0.0051210998
H       -0.0073877396   -2.1051393547   -0.1049248875
H        6.7082768304   -1.3801390300    2.1887797007
H        7.0504336509    1.0837771236    5.7040256858
H        3.0618982711    0.8681018772    2.4271711240
H        0.2805780805   -2.4129290289    2.3358544570
H        4.3215076771   -1.7710194893    2.6911928702
H        4.6593109108    0.6814322562    6.2100084875
H        0.9109662620   -1.3158753412    4.5023235739
H        2.7052859808   -0.8618948056    5.8952014765
26   
Generated by ForceBalance from scan.xyz: Frame 8 of 15
C        1.5112715354   -0.9322173488   -0.2475435554
C        6.9066445704    0.3761971470    3.9201859523
C        2.6707496937   -1.4384994371    0.3531740845
C        0.4623878193   -0.4758785095    0.5569259571
C        5.8430357211    0.9159954596    3.1860836351
C        6.6403953701   -0.5248805484    4.9559187627
C        2.7887522753   -1.4732327368    1.7426527975
C        0.5777617405   -0.5200851306    1.9486745377
C        4.5285743885    0.5469695924    3.4721412693
C        5.3225846223   -0.8862078376    5.2476255943
C        1.7490723865   -0.9973971806    2.5639639447
C        4.2476890361   -0.3753097701    4.4980020711
C        1.8227902458   -1.0366415978    4.0384166303
C        2.8700834146   -0.7758785342    4.8486826206
H        1.4227375139   -0.9047729014   -1.3305533353
H        7.9301357758    0.6641005294    3.6941756304
H        3.4830874225   -1.8135809202   -0.2643895506
H       -0.4467850566   -0.0910765423    0.1017737231
H        6.0392319939    1.6322490071    2.3920702368
H        7.4571512612   -0.9418358922    5.5397780987
H        3.6874991630   -1.8765373990    2.1978437513
H       -0.2434561446   -0.1683656796    2.5695969386
H        3.7113521655    0.9787072998    2.9035115892
H        5.1213084514   -1.5838293381    6.0578385399
H        0.8792006874   -1.2702358464    4.5314267954
H        2.6996988612   -0.9184338120    5.9157104878
26   
Generated by ForceBalance from scan.xyz: Frame 9 of 15
C        1.4817639961   -0.9928330184   -0.2504597440
C        6.9060062084    0.4273194658    3.9650641519
C        2.6376245153   -1.4928762792    0.3630263918
C        0.4441781984   -0.4920516298    0.5420531253
C        5.8331427254    0.9552877621    3.2352487134
C        6.6568874941   -0.5080299176    4.9742630274
C        2.7631253127   -1.4787267477    1.7517915414
C        0.5672653136   -0.4856687603    1.9336173830
C        4.5275662693    0.5423967569    3.4991771180
C        5.3477278748   -0.9148082405    5.2431844763
C        1.7339073855   -0.9599924314    2.5614257367
C        4.2634130491   -0.4129854050    4.4998263612
C        1.8115432713   -0.9581208593    4.0346693904
C        2.8948944021   -0.8509440591    4.8343568308
H        1.3875031047   -1.0047792633   -1.3332591919
H        7.9225003762    0.7508350528    3.7563520864
H        3.4410022562   -1.9022339748   -0.2444350162
H       -0.4619584450   -0.1111876126    0.0776395159
H        6.0154703379    1.6976466058    2.4621620906
H        7.4802461225   -0.9168705491    5.5545728240
H        3.6580704023   -1.8797587534    2.2162258733
H       -0.2453488837   -0.0991585886    2.5452244748
H        3.7036670708    0.9674491280    2.9353071733
H        5.1598171697   -1.6392779964    6.0328661216
H        0.8624004819   -1.1562574813    4.5323843465
H        2.7297628830   -1.0291170872    5.8968302304
26   
Generated by ForceBalance from scan.xyz: Frame 10 of 15
C        1.3914039065   -1.0453322823   -0.2813594897
C        6.9538802007    0.4654605596    4.0550033606
C        2.5730163058   -1.5058986690    0.3144650568
C        0.3708190153   -0.5308019809    0.5242176272
C        5.8968838519    0.9681053498    3.2846509689
C        6.6900793489   -0.4829011540    5.0481339881
C        2.7398960246   -1.4410343643    1.6969467692
C        0.5363096233   -0.4721504046    1.9098406719
C        4.5936765107    0.5194052916    3.4935329796
C        5.3831300860   -0.9271174372    5.2610543020
C        1.7261975095   -0.9118627249    2.5206768110
C        4.3141467351   -0.4465830274    4.4808867565
C        1.8400553175   -0.8673681310    3.9892302367
C        2.9466124208   -0.9145482240    4.7680329607
H        1.2649021550   -1.0983261150   -1.3595993369
H        7.9684863390    0.8184428439    3.8895032644
H        3.3640550943   -1.9251462488   -0.3024093940
H       -0.5544716924   -0.1793491821    0.0746256994
H        6.0900093105    1.7197799048    2.5232491087
H        7.5002913631   -0.8732169656    5.6588916397
H        3.6537392367   -1.8150838888    2.1468861600
H       -0.2635252405   -0.0752995852    2.5316215831
H        3.7821861583    0.9280182394    2.9002483875
H        5.1836912229   -1.6614981016    6.0387088231
H        0.8913607516   -1.0298585065    4.5013027914
H        2.7762429226   -1.1300295430    5.8231090532
26   
Generated by ForceBalance from scan.xyz: Frame 11 of 15
C        1.2551771782   -1.0936361833   -0.3196879280
C        7.0258152203    0.4921940154    4.1833997881
C        2.4825251443   -1.4883415075    0.2297520478
C        0.2561659760   -0.5920887686    0.5204978939
C        6.0095516890    0.9580454992    3.3382627110
C        6.7201585898   -0.4499958645    5.1704822294
C        2.7144308949   -1.3729758202    1.5990863789
C        0.4869767324   -0.4816531906    1.8931670561
C        4.7066896516    0.4808687809    3.4687062332
C        5.4135554827   -0.9238694758    5.3043555277
C        1.7200029053   -0.8619255243    2.4585782658
C        4.3839256918   -0.4750470931    4.4540162597
C        1.8966032722   -0.7745877339    3.9171624202
C        3.0129778578   -0.9659107416    4.6681191572
H        1.0778632690   -1.1868451713   -1.3879526935
H        8.0402444600    0.8682452207    4.0793040839
H        3.2586611390   -1.8957609283   -0.4134525995
H       -0.7031232056   -0.2903456401    0.1075702803
H        6.2344694668    1.7035459187    2.5794936175
H        7.4979378801   -0.8129337832    5.8376633257
H        3.6629755503   -1.6996932984    2.0130061147
H       -0.2966736657   -0.0956465096    2.5417858509
H        3.9262821719    0.8642599834    2.8192558844
H        5.1816307135   -1.6528628749    6.0780441211
H        0.9548623408   -0.9042444546    4.4525012736
H        2.8262832808   -1.2175096185    5.7131633237
26   
Generated by ForceBalance from scan.xyz: Frame 12 of 15
C        1.0930449179   -1.1545780111   -0.3423752912
C        7.0892164881    0.5196240216    4.3435325636
C        2.3683262976   -1.4752587068    0.1429891765
C        0.1231117484   -0.6725211008    0.5423905920
C        6.1308643732    0.9475174117    3.4144211822
C        6.7289050283   -0.4119519329    5.3224734158
C        2.6742489560   -1.3080761136    1.4919587604
C        0.4282258349   -0.5090464825    1.8948122198
C        4.8319665172    0.4451784964    3.4557545150
C        5.4265320828   -0.9125525759    5.3672903737
C        1.7067090900   -0.8232035636    2.3977480255
C        4.4529880106   -0.4949113128    4.4377719916
C        1.9637533199   -0.6898890550    3.8390264198
C        3.0798227715   -1.0052612112    4.5598578193
H        0.8574742091   -1.2887934805   -1.3948595382
H        8.1006483106    0.9159340169    4.3093116554
H        3.1240772142   -1.8645374532   -0.5348261391
H       -0.8715410726   -0.4262254665    0.1793540559
H        6.3985162630    1.6824774190    2.6592284468
H        7.4616930075   -0.7466718374    6.0523823916
H        3.6593809726   -1.5806018611    1.8577888007
H       -0.3332571269   -0.1384476048    2.5778107129
H        4.0942024697    0.8012391938    2.7433225145
H        5.1520811153   -1.6331011461    6.1348953737
H        1.0348522070   -0.7909881516    4.4046311866
H        2.8674321161   -1.2895625440    5.5928390469
26   
Generated by ForceBalance from scan.xyz: Frame 13 of 15
C        0.9116465402   -1.2277543847   -0.3566261442
C        7.1496533382    0.5520163005    4.5273506561
C        2.2319360960   -1.4750850415    0.0448933711
C       -0.0162156449   -0.7630060550    0.5812751742
C        6.2680374076    0.9476063134    3.5115559757
C        6.7223766458   -0.3706411219    5.4879387080
C        2.6209743896   -1.2549123092    1.3641276791
C        0.3719195288   -0.5453405686    1.9042150918
C        4.9788428056    0.4235287382    3.4526479338
C        5.4296877611   -0.8940714025    5.4321665108
C        1.6939252956   -0.7944049628    2.3251050306
C        4.5298448684   -0.5020856776    4.4204565529
C        2.0476176613   -0.6125260341    3.7387183635
C        3.1587492670   -1.0277267593    4.4319140340
H        0.6098374974   -1.4039098407   -1.3857161110
H        8.1537151750    0.9654543529    4.5728561316
H        2.9567773501   -1.8470508681   -0.6751179046
H       -1.0436373918   -0.5716427716    0.2819961108
H        6.5887108272    1.6727434463    2.7675766067
H        7.3964255334   -0.6813130115    6.2822429842
H        3.6406588703   -1.4719747191    1.6689722981
H       -0.3571341012   -0.1884765435    2.6285662486
H        4.2967870307    0.7545961995    2.6748088411
H        5.1032289605   -1.6075016584    6.1858453661
H        1.1381501821   -0.6904675090    4.3412447251
H        2.9110294586   -1.3406693051    5.4502195905
26   
Generated by ForceBalance from scan.xyz: Frame 14 of 15
C        0.7207380474   -1.3056298924   -0.3744097617
C        7.2161607587    0.5877710758    4.7203462018
C        2.0766873648   -1.4989499400   -0.0732072564
C       -0.1453934234   -0.8404379324    0.6209045623
C        6.4251199328    0.9719887840    3.6279527802
C        6.7146680450   -0.3394777349    5.6400937381
C        2.5596053625   -1.2270771069    1.2041458513
C        0.3356881026   -0.5707148280    1.9028866405
C        5.1526125466    0.4334308305    3.4563093200
C        5.4380815137   -0.8777181663    5.4718182567
C        1.6934085966   -0.7720619192    2.2244121727
C        4.6259597156   -0.4921036902    4.3859685320
C        2.1578759491   -0.5400479043    3.5956709670
C        3.2656144878   -1.0267294776    4.2692673555
H        0.3444574122   -1.5229850694   -1.3705268526
H        8.2072048413    1.0127816207    4.8555433211
H        2.7546333765   -1.8676851145   -0.8391023849
H       -1.1986121945   -0.6893758909    0.3980366046
H        6.8045650148    1.6979899888    2.9130293879
H        7.3190326140   -0.6423062900    6.4914478670
H        3.6072475288   -1.3999641806    1.4363237682
H       -0.3457751052   -0.2143771752    2.6723486602
H        4.5369251932    0.7523589873    2.6193199706
H        5.0538940639   -1.5941140042    6.1947273692
H        1.2779458812   -0.6023544796    4.2449903763
H        2.9682178763   -1.3621726929    5.2686713446
26   
Generated by ForceBalance from scan.xyz: Frame 15 of 15
C        0.5117016493   -1.4074907074   -0.3758121337
C        7.2677412125    0.6364760877    4.9416568817
C        1.8891299859   -1.5902381531   -0.1846273364
C       -0.2664282156   -0.8981322857    0.6698873710
C        6.5718116391    1.0495141405    3.7960726041
C        6.6995830503   -0.3277955176    5.7817695713
C        2.4785746211   -1.2640428297    1.0335965969
C        0.3209342986   -0.5761505394    1.8936631860
C        5.3278642689    0.5024260020    3.4941151590
C        5.4503948275   -0.8733254416    5.4848046148
C        1.7020788707   -0.7673012048    2.1067256792
C        4.7316146768   -0.4582310334    4.3443728015
C        2.2851939880   -0.4799935910    3.4189424652
C        3.3957663806   -0.9998907843    4.0864675477
H        0.0510348353   -1.6672570397   -1.3251875334
H        8.2363908896    1.0678922937    5.1795695532
H        2.4995231351   -1.9919904534   -0.9897454823
H       -1.3351700871   -0.7548253807    0.5320129178
H        7.0034491733    1.8033069805    3.1421030519
H        7.2304031872   -0.6528454585    6.6730214235
H        3.5430807958   -1.4256789125    1.1841747643
H       -0.2934372774   -0.1878265606    2.7030546637
H        4.7829279968    0.8396288314    2.6158587138
H        5.0133042301   -1.6168758438    6.1477232010
H        1.4366690139   -0.5210685743    4.1130341963
H        3.0514214926   -1.3618147735    5.0631367646
