22   
Generated by ForceBalance from scan.xyz: Frame 1 of 24
C        1.6004139887   -0.7491878359    0.5973982819
C        0.5306780106   -0.5017687059    1.3664386798
C        0.9957657491    2.0162249078    1.8558838270
C       -0.4940896491    1.7840704970    2.0382300031
C        0.4931153602    0.6690958598    2.3122947614
C       -0.6895726125   -1.3931038559    1.3516313336
C        0.7223014056    0.2472350558    3.7657278857
N        1.5038423613    2.0882485805    5.0316322807
O        0.3726678857    1.2297169804    4.7466279522
H        1.6337764713   -1.6037107720   -0.0751109865
H        2.4722410868   -0.0998407930    0.6155915459
H        1.3662985431    2.0992744648    0.8389158765
H        1.5169891235    2.6321970696    2.5801143156
H       -0.9828397965    2.2394832183    2.8941167871
H       -1.1020981362    1.7138626794    1.1404222035
H       -0.8951396680   -1.8110852580    2.3440962671
H       -1.5805680044   -0.8228909311    1.0637627922
H       -0.5709924713   -2.2261597215    0.6532693822
H        1.7657504051   -0.0552016808    3.9048474554
H        0.0780602328   -0.6058203349    4.0040070600
H        1.6648577300    1.9370364856    6.0310901189
H        1.1086196342    3.0286708293    4.9588611297
22   
Generated by ForceBalance from scan.xyz: Frame 2 of 24
C        1.5352846669   -0.8007730682    0.4962104371
C        0.5292521273   -0.5202437196    1.3367013613
C        1.1255054394    1.9768157684    1.8185348742
C       -0.3607826337    1.7936619624    2.0653660198
C        0.5975553152    0.6427222337    2.2897155250
C       -0.7258212423   -1.3592778249    1.3950791572
C        0.8925248933    0.2050311633    3.7312226560
N        1.2360716236    2.1479392169    5.0310124663
O        0.3465328126    1.0370740836    4.7594721945
H        1.4925462580   -1.6481331861   -0.1848155647
H        2.4304088776   -0.1847011460    0.4616723032
H        1.4525526373    2.0611126591    0.7866727078
H        1.6943606442    2.5629870999    2.5327994835
H       -0.8080626348    2.2532149434    2.9412102751
H       -1.0089664768    1.7465663366    1.1945627786
H       -0.9040659156   -1.7487663899    2.4041929357
H       -1.6040547212   -0.7559830507    1.1366658194
H       -0.6751320495   -2.2087019077    0.7083129238
H        1.9735005221    0.1034626021    3.8762216996
H        0.4276753003   -0.7682158978    3.9168086865
H        1.4188798188    2.0584369073    6.0335430078
H        0.6331313081    2.9685603756    4.9342592677
22   
Generated by ForceBalance from scan.xyz: Frame 3 of 24
C        1.4418580495   -0.8276050991    0.4178611414
C        0.5146137156   -0.5145844785    1.3339721468
C        1.2443413583    1.9597169536    1.7641167140
C       -0.2371575889    1.8362445340    2.0513627157
C        0.6822474852    0.6508716971    2.2711251930
C       -0.7551914601   -1.3156752223    1.4993893633
C        1.0172581195    0.2236700684    3.7106396075
N        0.9474964192    2.1426786154    5.0725670692
O        0.2959366121    0.8876810399    4.7529996295
H        1.3182310308   -1.6754644215   -0.2525573804
H        2.3499875893   -0.2401059356    0.3081200341
H        1.5531770038    2.0245995413    0.7252296171
H        1.8416233747    2.5356071591    2.4646216735
H       -0.6487116389    2.3338495482    2.9226058511
H       -0.9103532104    1.7895821400    1.1996891173
H       -0.8643504727   -1.6882690814    2.5247172521
H       -1.6329203634   -0.6883282316    1.3041441538
H       -0.7833437982   -2.1730097128    0.8212336705
H        2.0924835840    0.3268585303    3.8908897399
H        0.7505590182   -0.8285577976    3.8460036397
H        1.1893289482    2.0362744930    6.0610994608
H        0.1834677879    2.8217837841    5.0500679607
22   
Generated by ForceBalance from scan.xyz: Frame 4 of 24
C        1.3546031811   -0.8489799287    0.3630124533
C        0.5043978954   -0.5001843817    1.3385716686
C        1.3649056170    1.9395798002    1.6781756228
C       -0.1070298742    1.9016097047    2.0175406271
C        0.7560793186    0.6743231390    2.2453418956
C       -0.7645828701   -1.2710998972    1.6154928661
C        1.1316449034    0.2647879256    3.6810191948
N        0.6449713471    2.0659905068    5.1153487172
O        0.2657971879    0.7219128627    4.7258406784
H        1.1631945684   -1.7061097389   -0.2790370483
H        2.2654240570   -0.2862323261    0.1750803536
H        1.6472255047    1.9603240254    0.6302297829
H        2.0089606147    2.5089327435    2.3422923927
H       -0.4510530543    2.4610072676    2.8789437003
H       -0.8122330047    1.8565486162    1.1919628580
H       -0.8041392002   -1.6120591265    2.6569049417
H       -1.6417955666   -0.6297918572    1.4685968817
H       -0.8591807150   -2.1451383677    0.9651715766
H        2.1564279515    0.5788143106    3.9052443593
H        1.0893799386   -0.8246451899    3.7670971894
H        0.9764245890    1.9497462482    6.0773127932
H       -0.2542157682    2.5455384143    5.1960779071
22   
Generated by ForceBalance from scan.xyz: Frame 5 of 24
C        1.7430969251   -0.5172014917    0.3834100253
C        0.6551130349   -0.5658750387    1.1641161884
C        0.8931926459    1.8251745057    2.1615327792
C       -0.5807493045    1.5023097218    2.0954039214
C        0.4290287711    0.3885030470    2.3057246215
C       -0.4224100897   -1.6085446345    0.9816762950
C        0.5534925826   -0.2729629165    3.6870820551
N       -1.0754953871    0.6662353088    5.1121818786
O       -0.6741569509   -0.5205638611    4.3860744944
H        1.8925775899   -1.2279683891   -0.4264526528
H        2.5168873640    0.2319897204    0.5289646095
H        1.3927104075    2.1219778303    1.2451759181
H        1.2533730074    2.3205268770    3.0589315514
H       -1.2005705728    1.8007458485    2.9319035439
H       -1.0609801679    1.5472753573    1.1215820630
H       -0.5769048495   -2.1810564418    1.9040267418
H       -1.3826113820   -1.1303418579    0.7536194710
H       -0.1806817557   -2.3083782484    0.1768508423
H        1.2068478291    0.3214836319    4.3337950189
H        1.0008976970   -1.2646172619    3.5744207057
H       -1.0411615102    0.3667292603    6.0908341123
H       -2.0696690225    0.7488479243    4.8887149612
22   
Generated by ForceBalance from scan.xyz: Frame 6 of 24
C        1.6641549565   -0.5577669622    0.3597815896
C        0.6185198368   -0.5493185826    1.1977333903
C        1.0050924831    1.8547423605    2.1050937343
C       -0.4847626293    1.6057153315    2.1367591568
C        0.4797712096    0.4469464820    2.3177852533
C       -0.4899561841   -1.5718835113    1.1111219217
C        0.6602625833   -0.1610062827    3.7107221803
N       -1.2518246673    0.4386518760    4.9613836583
O       -0.5352660281   -0.6512001044    4.3366213903
H        1.7499397394   -1.3026264372   -0.4283550017
H        2.4658910051    0.1719882824    0.4359105433
H        1.4586937945    2.0977510807    1.1502764053
H        1.4481193934    2.3612240491    2.9581183957
H       -1.0370708979    1.9508467247    3.0028762499
H       -1.0183594374    1.6542625692    1.1912514853
H       -0.5907757005   -2.1196639986    2.0551165651
H       -1.4539096164   -1.0774251052    0.9392958903
H       -0.3182323896   -2.2911589187    0.3053089030
H        1.1258200352    0.5664414697    4.3839981732
H        1.3099030284   -1.0389004322    3.6452879890
H       -1.3637508310    0.1153073349    5.9256077223
H       -2.1831820188    0.3837357814    4.5428539441
22   
Generated by ForceBalance from scan.xyz: Frame 7 of 24
C        1.5972840972   -0.6347968980    0.4026275537
C        0.5733163309   -0.5413326084    1.2623419226
C        1.0801236115    1.8843826332    2.0525625770
C       -0.4132571797    1.6852704364    2.1794404517
C        0.5256087489    0.5033594331    2.3459495243
C       -0.5918766321   -1.5020615854    1.2282920126
C        0.7712530192   -0.0252656829    3.7554647148
N       -1.3369891436    0.1773269957    4.7897969153
O       -0.3209246093   -0.7483541281    4.3394737708
H        1.6246686683   -1.4074943058   -0.3625713790
H        2.4395438326    0.0513043293    0.4389140673
H        1.4806740979    2.0727046570    1.0624365953
H        1.5937286787    2.4085423579    2.8539085375
H       -0.9103043039    2.0664547432    3.0647855667
H       -0.9975482765    1.7270033032    1.2639821649
H       -0.6800361497   -2.0363643632    2.1802900612
H       -1.5336470704   -0.9566434130    1.0871261631
H       -0.4913895817   -2.2322558776    0.4201823392
H        1.0377568330    0.8011473339    4.4245525998
H        1.5918550799   -0.7495029449    3.7398101721
H       -1.5900937883   -0.2029802055    5.7042470035
H       -2.1355420286   -0.0127165837    4.1788447859
22   
Generated by ForceBalance from scan.xyz: Frame 8 of 24
C        1.5572427871   -0.7334831855    0.4658278878
C        0.5403665112   -0.5405353239    1.3176536246
C        1.1486302891    1.9064956171    1.9866964979
C       -0.3481602171    1.7513871602    2.1452496430
C        0.5666319417    0.5562185162    2.3496290243
C       -0.6859700707   -1.4225131799    1.3085678778
C        0.8177727312    0.1127241997    3.7850458625
N       -1.3704359505   -0.0832915020    4.6097564005
O       -0.1469282695   -0.8002169032    4.3168306203
H        1.5358484415   -1.5319520054   -0.2727201989
H        2.4428086483   -0.1031277759    0.4828804050
H        1.5376780339    2.0380638416    0.9827341093
H        1.6913827006    2.4520498938    2.7543297559
H       -0.8273190102    2.1756725315    3.0218026674
H       -0.9457905484    1.7730933393    1.2378600672
H       -0.7702506257   -1.9685950672    2.2537827027
H       -1.5951064651   -0.8174249719    1.2002373447
H       -0.6562906707   -2.1452535378    0.4881687088
H        0.8815090157    0.9894469788    4.4410621602
H        1.7596191487   -0.4443760577    3.8371281614
H       -1.6778626516   -0.5262960810    5.4777070283
H       -2.0271132115   -0.3962426681    3.8890811082
22   
Generated by ForceBalance from scan.xyz: Frame 9 of 24
C        1.5058235576   -0.7623644755    0.5200558724
C        0.4936712236   -0.5056778793    1.3611346487
C        1.1901111988    1.9445075387    1.9513454846
C       -0.3156381681    1.8370862747    2.0665245099
C        0.5626843448    0.6283788012    2.3501740237
C       -0.7669941763   -1.3379280359    1.3549185759
C        0.7542236430    0.2580920056    3.8178356221
N       -1.3959513997   -0.3104924404    4.5499008408
O       -0.0610762811   -0.8133627764    4.2925686063
H        1.4524657411   -1.5725480676   -0.2041304140
H        2.4199905361   -0.1742001259    0.5321690885
H        1.6149964822    2.0266279879    0.9565373977
H        1.7250114386    2.5045477818    2.7147049504
H       -0.8122159864    2.3100842198    2.9085948529
H       -0.8830844074    1.8395170598    1.1398647843
H       -0.8215639298   -1.9522867317    2.2593431623
H       -1.6568146365   -0.6971300274    1.3314357591
H       -0.8010066681   -2.0029337491    0.4872619799
H        0.6106139694    1.1405294677    4.4522854329
H        1.7740919968   -0.1201000275    3.9585214710
H       -1.6359380376   -0.7649325027    5.4331062445
H       -1.9793763713   -0.7585771610    3.8382866515
22   
Generated by ForceBalance from scan.xyz: Frame 10 of 24
C        1.4632330114   -0.8072281068    0.5469482930
C        0.4621981622   -0.4964206103    1.3834760466
C        1.2832692589    1.9260107547    1.9335002179
C       -0.2301573445    1.8988997205    1.9678259243
C        0.5717551582    0.6589101180    2.3425857049
C       -0.8307512628   -1.2785026442    1.3783212276
C        0.6703265032    0.3445181088    3.8396584159
N       -1.3736203684   -0.5541107407    4.5556250436
O        0.0184134122   -0.8475823881    4.2733636776
H        1.3733905256   -1.6196202245   -0.1712724118
H        2.4049863943   -0.2647049348    0.5574562930
H        1.7671679803    1.9572930372    0.9629578599
H        1.8022406995    2.4828609971    2.7106557462
H       -0.7450487563    2.4316451938    2.7627436173
H       -0.7468928905    1.8956238026    1.0119880722
H       -0.8511939365   -1.9833661648    2.2158950318
H       -1.6950668785   -0.6120368894    1.4746246099
H       -0.9399454497   -1.8549377432    0.4551927583
H        0.3251841878    1.1964667152    4.4351127449
H        1.7236733616    0.1504934408    4.0794132055
H       -1.5095748934   -0.9762234806    5.4765755685
H       -1.8942907264   -1.1423694743    3.9008416648
22   
Generated by ForceBalance from scan.xyz: Frame 11 of 24
C        0.9865858193   -1.5973993890    1.6805587873
C        0.1373947384   -0.5622994002    1.5594803327
C        0.6819231314    1.9521104575    1.8726687500
C       -0.7709587174    1.7866344389    2.2299644036
C        0.1988199218    0.6359650139    2.4704737626
C       -0.8906166916   -0.5569057319    0.4510925626
C        0.5902221496    0.4351159946    3.9545079386
N       -0.8304852720   -1.3407761459    4.4744165358
O        0.5488584209   -0.8954787593    4.4433069502
H        0.9389559522   -2.4372860090    0.9908476151
H        1.7358825122   -1.6459104364    2.4626847481
H        0.9586056807    1.9551456581    0.8220456026
H        1.3055159658    2.5838979629    2.5015494597
H       -1.1414302645    2.3027469478    3.1111951093
H       -1.4922467755    1.7208669032    1.4235928121
H       -1.9079450858   -0.5038996382    0.8553980678
H       -0.7668362857    0.3030810361   -0.2188043229
H       -0.8078670828   -1.4618938760   -0.1562478808
H       -0.0366137408    1.0786942039    4.5831947102
H        1.6391530789    0.7164273821    4.1052615758
H       -0.8656555184   -1.8820313411    5.3403515178
H       -0.8787032928   -2.0199666073    3.7091044544
22   
Generated by ForceBalance from scan.xyz: Frame 12 of 24
C        1.2206319110   -1.2871170372    1.3552805223
C        0.1441106666   -0.5089257190    1.5325265275
C        0.9978676930    1.9130864108    1.8998737025
C       -0.5104854788    1.9698368657    1.9927616389
C        0.2198301114    0.7137864397    2.4153667303
C       -1.1889234875   -0.8333047376    0.9006635350
C        0.3229508069    0.4733171658    3.9466685783
N       -0.9774300677   -1.4603950510    4.1664281821
O        0.3355963010   -0.8839459446    4.3636680819
H        1.1797997087   -2.1876282698    0.7459408535
H        2.1747680569   -1.0473307245    1.8181948304
H        1.4477205474    1.8391907057    0.9143215564
H        1.5773786599    2.4870192488    2.6200616281
H       -0.9512700227    2.5811106924    2.7768718706
H       -1.0769603766    1.9619495249    1.0665665995
H       -1.9803692237   -0.8364260775    1.6577570425
H       -1.4680770129   -0.0829125795    0.1512662985
H       -1.1679641095   -1.8070624597    0.4017714088
H       -0.4939448716    1.0002816398    4.4560336888
H        1.2766456986    0.8590801661    4.3216196722
H       -1.1720047093   -1.8959678153    5.0709236201
H       -0.7992837366   -2.2288484857    3.5150824800
22   
Generated by ForceBalance from scan.xyz: Frame 13 of 24
C        1.1834477809   -1.2477658903    1.2839856905
C        0.0993773345   -0.5015689681    1.5352232082
C        1.1156303616    1.8413578919    1.9333566628
C       -0.3862088901    2.0316410351    1.9072471649
C        0.1941900940    0.7280664768    2.4045688419
C       -1.2672441072   -0.8589157720    0.9999305626
C        0.1374879159    0.5139610393    3.9397701898
N       -0.8690944757   -1.5928479059    4.1638715057
O        0.3343933176   -0.8221084953    4.3847706446
H        1.1266426832   -2.1484151957    0.6759190998
H        2.1595884294   -0.9762329423    1.6779992745
H        1.6261341235    1.7112938478    0.9841852925
H        1.6861404193    2.3819397676    2.6851833351
H       -0.8312957859    2.6977528393    2.6434132566
H       -0.8782520953    2.0484934016    0.9390314817
H       -1.9931329095   -0.9195662825    1.8176943771
H       -1.6300599077   -0.0910889992    0.3062398312
H       -1.2541041448   -1.8142529962    0.4661724349
H       -0.8249581875    0.8721493616    4.3263292681
H        0.9414049834    1.0778950037    4.4230262681
H       -1.0053149174   -2.0584128033    5.0639779179
H       -0.5672184127   -2.3202334854    3.5109035957
22   
Generated by ForceBalance from scan.xyz: Frame 14 of 24
C       -0.4610644375   -1.1638086730    0.9194447676
C        0.6079268351   -0.4943608682    1.3750297308
C        0.6578882560    2.0354582428    1.7699188964
C       -0.7060317053    1.5904254553    2.2536616270
C        0.4637736439    0.6413013988    2.3528680056
C        2.0022823586   -0.8358924343    0.9032918990
C        0.9747264706    0.4292036852    3.7824463387
N        3.3131548816    0.2654190698    3.7287596757
O        2.0761396613   -0.4652662987    3.9273784309
H       -0.3637233232   -1.9619402484    0.1863584702
H       -1.4656333688   -0.9399133499    1.2687776515
H        0.7993930857    2.1178537793    0.6957510133
H        1.2109822784    2.7613808013    2.3597849787
H       -1.0846598543    2.0181150223    3.1794641600
H       -1.4688961313    1.3949140064    1.5073957689
H        2.5904997053    0.0706674555    0.7226606215
H        2.5229857743   -1.4328317080    1.6591498469
H        1.9745128536   -1.4198190710   -0.0211704032
H        0.1808507960   -0.0618645590    4.3597515318
H        1.2094042514    1.3897096458    4.2534674796
H        3.7440221300   -0.1822354987    2.9164506706
H        3.8743908160   -0.0207811406    4.5336960070
22   
Generated by ForceBalance from scan.xyz: Frame 15 of 24
C       -0.5221239543   -1.1363399363    0.9100035091
C        0.5754574393   -0.5146156471    1.3644583248
C        0.7862037670    2.0109574059    1.8314993932
C       -0.6232608711    1.6380943651    2.2395007235
C        0.4840624223    0.6157476584    2.3559042062
C        1.9566904263   -0.9139408135    0.9011061281
C        0.9204159556    0.3196281945    3.7875934000
N        3.2538658164    0.5027438151    3.7240957795
O        2.1423078211   -0.4067669403    3.9196132505
H       -0.4591479807   -1.9440073024    0.1837824154
H       -1.5163102423   -0.8606921927    1.2526402137
H        0.9805665897    2.1167426717    0.7676703428
H        1.3577012584    2.6782966362    2.4698153447
H       -1.0215046802    2.0627856469    3.1579349324
H       -1.3580033920    1.5071708158    1.4521453985
H        2.5357833592   -0.0331952626    0.5979670413
H        2.5012930152   -1.4090727985    1.7114468805
H        1.9086776785   -1.6011092161    0.0515696957
H        0.1816436089   -0.3433311806    4.2541330520
H        0.9795038753    1.2497223582    4.3648951534
H        3.6769228092    0.2031839016    2.8415726067
H        3.9053291440    0.2149530415    4.4568535004
22   
Generated by ForceBalance from scan.xyz: Frame 16 of 24
C       -0.5951319173   -1.1293233615    0.8775302238
C        0.5303751520   -0.5656726708    1.3384064437
C        0.8680974268    1.9457357480    1.8917007172
C       -0.5629616758    1.6173257342    2.2574843964
C        0.5030067420    0.5458672690    2.3544096252
C        1.8959818808   -1.0228929867    0.8824058490
C        0.8988393349    0.1593948065    3.7736124484
N        3.1787410608    0.7146363402    3.7970573814
O        2.2221289380   -0.3661022437    3.9138719605
H       -0.5690338708   -1.9368750919    0.1490771621
H       -1.5756742919   -0.8044889121    1.2164722781
H        1.0895761733    2.0806954361    0.8363699424
H        1.4510039849    2.5642190980    2.5667232853
H       -0.9621839809    2.0261063093    3.1821411024
H       -1.2846027691    1.5436409379    1.4510025720
H        2.4751678166   -0.1766035526    0.4915909865
H        2.4589671844   -1.4407479737    1.7233478067
H        1.8255453317   -1.7809486014    0.0971164681
H        0.2565688279   -0.6559301688    4.1241556447
H        0.7827345250    1.0215825380    4.4416050058
H        3.6209779574    0.5651629992    2.8856733871
H        3.8813700891    0.4573217538    4.4929047525
22   
Generated by ForceBalance from scan.xyz: Frame 17 of 24
C       -0.6834619675   -1.0518702853    0.8345659410
C        0.4824975454   -0.5805439468    1.2979424375
C        0.9570958646    1.9062319388    1.9013972878
C       -0.4744820379    1.6226336017    2.2965806017
C        0.5539455105    0.5082877538    2.3358360470
C        1.8105866569   -1.1337846517    0.8376389195
C        0.9726063230    0.0400320813    3.7259207681
N        3.1251204444    0.9644841704    3.9875146767
O        2.3662658994   -0.2620761052    3.8788548473
H       -0.7176332389   -1.8518894985    0.0982552781
H       -1.6367965744   -0.6587422578    1.1781494491
H        1.1579258917    2.0565496611    0.8438876320
H        1.5723112345    2.4897295505    2.5775912950
H       -0.8301697131    2.0217566596    3.2425359252
H       -1.2192532937    1.6008646147    1.5084765018
H        2.4274540591   -0.3367305495    0.4034525407
H        2.3747230316   -1.5391182473    1.6843686712
H        1.6839290256   -1.9196846606    0.0875333531
H        0.4686334837   -0.9018505584    3.9647670402
H        0.6962597376    0.7921218762    4.4739870875
H        3.6908655224    0.9838150062    3.1350828999
H        3.7751717107    0.7533704192    4.7476410562
22   
Generated by ForceBalance from scan.xyz: Frame 18 of 24
C       -0.7810878690   -1.0024314637    0.8191699595
C        0.4237309684   -0.6068710264    1.2522621009
C        1.0315055699    1.8502009317    1.8340843858
C       -0.3808723570    1.6218133192    2.3195223773
C        0.6036553713    0.4671333145    2.2917191002
C        1.7034265575   -1.2411835211    0.7604506116
C        1.1003994781   -0.0571244296    3.6411675046
N        3.0247696676    1.1999177694    4.1877303133
O        2.5261479138   -0.1028499262    3.8056603547
H       -0.8842111311   -1.7959086998    0.0822086894
H       -1.6988418473   -0.5517616605    1.1875258517
H        1.1751268377    1.9888058133    0.7657829325
H        1.7007449689    2.4152653506    2.4721531958
H       -0.6511543729    2.0296955053    3.2895735480
H       -1.1785481205    1.6379602875    1.5847234144
H        2.3463717070   -0.4885984535    0.2876882667
H        2.2801551593   -1.6555068390    1.5953237610
H        1.5106414390   -2.0390657694    0.0376913833
H        0.7808683982   -1.0955026329    3.7702573868
H        0.6803305944    0.5399474877    4.4573852545
H        3.7300394639    1.4047952279    3.4762216261
H        3.5476275640    1.0024558058    5.0447368253
22   
Generated by ForceBalance from scan.xyz: Frame 19 of 24
C       -0.8559796598   -0.9876983928    0.8707635793
C        0.3854908974   -0.6368760820    1.2330495202
C        1.1371186256    1.7778482539    1.7585298590
C       -0.2520662989    1.6328265509    2.3331375829
C        0.6638076458    0.4260140920    2.2616893427
C        1.6122847835   -1.3060859477    0.6597627438
C        1.2228731343   -0.1324380644    3.5794836648
N        2.8462466578    1.3722402536    4.3963930331
O        2.6243485862    0.0668161635    3.8102492507
H       -1.0332828532   -1.7702157541    0.1361535167
H       -1.7321804428   -0.5056096260    1.2962778689
H        1.2250074427    1.8931916469    0.6815295825
H        1.8713654241    2.3172886259    2.3440715545
H       -0.4300643757    2.0605430265    3.3159014531
H       -1.0950779948    1.6885753955    1.6522971530
H        2.2373133439   -0.5736690433    0.1348072057
H        2.2381756643   -1.7289246972    1.4546480882
H        1.3516731069   -2.1069354396   -0.0378525600
H        1.1024269404   -1.2194434059    3.5918355927
H        0.6695117135    0.2788884607    4.4298262455
H        3.6299342623    1.7396760075    3.8523682896
H        3.2345582962    1.1538791852    5.3184649529
22   
Generated by ForceBalance from scan.xyz: Frame 20 of 24
C       -0.4135357914   -1.2141415974    0.7181854457
C        0.5549682456   -0.5218801889    1.3338142086
C        0.5139791583    1.9956868023    1.8478036488
C       -0.9016535141    1.5151673999    2.0671840656
C        0.2590380630    0.5759255175    2.3198007085
C        2.0202909081   -0.8029267657    1.0991464928
C        0.5803944067    0.1884663198    3.7745277076
N        0.9026777097    2.1639617492    5.0120300036
O        1.5506014094    0.9934844829    4.4533686317
H       -0.1843994622   -2.0108571110    0.0137110819
H       -1.4645635105   -1.0026405944    0.8975911281
H        0.8504288101    2.1160153655    0.8215274272
H        0.9299335161    2.7089936224    2.5488378806
H       -1.4199468884    1.8936034419    2.9436536017
H       -1.5269247127    1.3519724887    1.1949848079
H        2.5154905695    0.0776963866    0.6729660910
H        2.5392547603   -1.0221242724    2.0398948998
H        2.1684698398   -1.6481417694    0.4213059884
H        1.0168087847   -0.8142043848    3.7919242322
H       -0.3393140975    0.1636744937    4.3683078899
H        1.5516060202    2.9194185598    4.7814009666
H        0.9958168993    2.0269460233    6.0226129997
22   
Generated by ForceBalance from scan.xyz: Frame 21 of 24
C       -0.4769616184   -1.2264857040    0.7973335606
C        0.5490150678   -0.5462108531    1.3280151801
C        0.6613018869    1.9725659956    1.8270018121
C       -0.7735412070    1.5734468060    2.0999473028
C        0.3393432445    0.5725452089    2.3125813372
C        1.9859719963   -0.8625975633    0.9866356625
C        0.7026232180    0.1808642529    3.7552223094
N        0.5954108359    2.1253334687    5.0777419070
O        1.4751571366    1.1307194204    4.4955460760
H       -0.3178752427   -2.0388821873    0.0914237089
H       -1.5067650799   -0.9859340585    1.0494538779
H        0.9625277554    2.0791269925    0.7884536107
H        1.1591243929    2.6505370691    2.5114782595
H       -1.2420252988    1.9766562745    2.9926803426
H       -1.4320159764    1.4436045294    1.2464313535
H        2.4657919273   -0.0000868962    0.5091874552
H        2.5731887011   -1.0834578447    1.8857488148
H        2.0617546355   -1.7196487801    0.3117801874
H        1.3404692444   -0.7076646873    3.7377023913
H       -0.2054021058   -0.0651948763    4.3159930601
H        1.0308378649    3.0124491041    4.8154269419
H        0.7616051965    2.0262062074    6.0825579956
22   
Generated by ForceBalance from scan.xyz: Frame 22 of 24
C       -0.5420324662   -1.2171039144    0.9109460527
C        0.5376044136   -0.5486705207    1.3408253276
C        0.7887618722    1.9822672546    1.7974761591
C       -0.6561385640    1.6421835856    2.1138640070
C        0.4225497448    0.6026149511    2.3035215783
C        1.9361597398   -0.9167710426    0.9037387678
C        0.8253530859    0.2157401447    3.7333566310
N        0.3293215741    2.0388029325    5.1517771719
O        1.3843778965    1.2653373819    4.5292035059
H       -0.4580789585   -2.0570581896    0.2246062936
H       -1.5432817908   -0.9380011899    1.2297390101
H        1.0606286673    2.0784361731    0.7498706965
H        1.3337659689    2.6361630925    2.4710675891
H       -1.0973215783    2.0658488726    3.0101034107
H       -1.3356541094    1.5256810092    1.2751033805
H        2.4055463694   -0.0806807067    0.3720875267
H        2.5813967391   -1.1391988627    1.7616453410
H        1.9359342734   -1.7895358900    0.2449414703
H        1.6259107579   -0.5295148848    3.6952393503
H       -0.0307558837   -0.2251067787    4.2554787279
H        0.5432613634    3.0011315798    4.8789110789
H        0.5555512081    1.9792075426    6.1476452003
22   
Generated by ForceBalance from scan.xyz: Frame 23 of 24
C       -0.6891019889   -0.8506007873    0.7251145846
C        0.4084448494   -0.6276804622    1.4612572549
C        1.4760157686    1.6535391896    2.0360434438
C       -0.0213887099    1.8963290315    1.9835303102
C        0.5061399567    0.5451012695    2.4010512595
C        1.6110533463   -1.5407933412    1.4033611318
C        0.3572698986    0.1371798978    3.8611181784
N        0.5691183698    0.8241125733    6.0794029630
O        0.8001484224    1.2057643974    4.7046189873
H       -0.7594339462   -1.6997534341    0.0487685925
H       -1.5486242824   -0.1868300145    0.7745612063
H        1.9995468469    1.5603428383    1.0883422172
H        2.0387036218    2.1240839072    2.8346959304
H       -0.4474164706    2.5256231872    2.7593829835
H       -0.4872776965    1.9875818798    1.0074622594
H        2.5056542116   -0.9819214204    1.1046381805
H        1.8297600890   -1.9800162891    2.3834834351
H        1.4600662786   -2.3587895756    0.6936507944
H        0.9513227394   -0.7598081590    4.0779222599
H       -0.6936983727   -0.0943584452    4.0764892062
H       -0.0014509187    1.5897220838    6.4454336938
H        1.4898721572    0.9310249543    6.5111109519
22   
Generated by ForceBalance from scan.xyz: Frame 24 of 24
C       -0.6865735071   -0.7918937533    0.6818974504
C        0.3932615336   -0.6278872857    1.4584521512
C        1.4803580469    1.6536443688    2.0079097909
C       -0.0202321989    1.8896701433    2.0138015418
C        0.5312659421    0.5383413190    2.4005423817
C        1.5418670784   -1.6110140390    1.4426355798
C        0.4690748332    0.1181340767    3.8630892569
N        0.6039579335    0.8407572907    6.0753662474
O        0.6064643116    1.2733334739    4.6965027298
H       -0.7723172312   -1.6349497466   -0.0002274138
H       -1.5162207797   -0.0903131251    0.7044346438
H        1.9704405667    1.5740813580    1.0412104009
H        2.0684962605    2.1216193182    2.7909878576
H       -0.4211258565    2.5120016844    2.8066206405
H       -0.5173591705    1.9840927724    1.0538823644
H        2.4922269961   -1.0931028681    1.2677930119
H        1.6378238868   -2.1312881810    2.4028451484
H        1.4098485931   -2.3681924000    0.6649693428
H        1.2719436540   -0.5909024754    4.0997086252
H       -0.4921719434   -0.3731164902    4.0668717159
H       -0.1844251379    1.3484852017    6.4837230576
H        1.4455237485    1.2767253080    6.4587694357
