47

C      2.30878    1.11825   -0.40337
C      0.08549    1.18505    1.66665
C      0.42272   -0.80455   -2.62297
C      0.01886    1.20825   -1.63755
C      1.09941   -0.95193   -1.26247
C      0.92862    0.47182   -0.61157
C      5.26533    0.92195   -0.99069
C      4.51189    1.83601   -3.21727
C      4.28688    3.26804   -1.15497
C      1.27901    3.58295    2.91916
C      0.25024    4.73458    0.92894
C     -1.25387    3.73287    2.69215
C      4.27574    1.84148   -1.70768
C      0.08541    3.62133    1.96343
N      0.25892    0.22454    0.65555
O      2.77289    1.39723    0.67978
O     -0.08462    0.88831    2.82881
O     -0.83985   -1.90477    1.72779
O      1.68795   -1.71178    1.67369
O     -0.57259    0.19255   -2.44112
O      0.35528   -1.88853   -0.46281
O      2.90241    1.27686   -1.59653
O      0.07866    2.40478    1.10954
S      0.37712   -1.42988    1.11715
H      1.17113   -0.49040   -3.36475
H     -0.05883   -1.72838   -2.94672
H     -0.77368    1.76298   -1.14064
H      0.62471    1.88463   -2.25150
H      2.14123   -1.27304   -1.31376
H      5.10006    0.91394    0.08692
H      5.18161   -0.10109   -1.37069
H      6.28428    1.27143   -1.18477
H      3.76966    2.45612   -3.72843
H      4.44891    0.81895   -3.61525
H      5.50665    2.23234   -3.43948
H      3.50563    3.86839   -1.63197
H      4.13748    3.28098   -0.07514
H      5.25310    3.73117   -1.37813
H      1.15429    2.81955    3.68736
H      2.20076    3.37788    2.36881
H      1.37156    4.55850    3.40734
H     -0.56800    4.71356    0.20279
H      1.19775    4.62292    0.39303
H      0.24589    5.70856    1.42638
H     -2.08231    3.71210    1.97715
H     -1.38230    2.91944    3.40714
H     -1.29275    4.68396    3.23305
