47

C      0.70253    1.67790    0.08894
C     -1.28582   -0.56961   -0.52545
C      3.01065   -1.11743   -0.65242
C      1.50309    0.15666   -1.84344
C      2.28391   -0.28164    0.40844
C      1.04550    0.24954   -0.36627
C     -1.33915    3.79562    0.72235
C     -1.69366    2.32136    2.74081
C      0.49743    3.54350    2.47159
C     -3.82292   -1.73552   -1.70865
C     -4.01661   -2.65596    0.63524
C     -4.13817   -0.16245    0.27015
C     -0.67369    2.87767    1.74831
C     -3.54983   -1.48369   -0.22572
N      0.01300   -0.72254   -0.02949
O      1.26885    2.65095   -0.36892
O     -1.55176    0.28538   -1.35090
O      0.46849   -3.05813    1.00720
O     -0.45577   -1.27017    2.52281
O      2.85081   -0.33926   -1.82953
O      1.83849   -0.99895    1.56932
O     -0.19354    1.64606    1.07152
O     -2.08345   -1.48511    0.01782
S      0.34236   -1.66168    1.37923
H      4.07784   -1.22884   -0.45467
H      2.54693   -2.11017   -0.73985
H      0.84464   -0.52746   -2.38654
H      1.50973    1.13273   -2.32509
H      2.90423    0.53588    0.77398
H     -0.61107    4.22196    0.03138
H     -2.08842    3.24185    0.14890
H     -1.84336    4.61252    1.24857
H     -1.22943    1.57689    3.39271
H     -2.52135    1.84292    2.21043
H     -2.09561    3.13264    3.35484
H      0.97883    2.83262    3.15035
H      1.23760    3.92471    1.76668
H      0.12228    4.38139    3.06769
H     -3.49278   -0.89802   -2.32437
H     -3.31312   -2.64521   -2.03996
H     -4.89857   -1.87584   -1.85528
H     -3.75179   -2.49107    1.68302
H     -3.54829   -3.58670    0.30365
H     -5.10240   -2.76253    0.55759
H     -3.86601    0.00222    1.31669
H     -3.78993    0.68043   -0.32891
H     -5.22960   -0.20801    0.20321
