44

C      3.98747   -3.37660   -2.79018
C      0.51197   -0.65095    1.55086
C      2.93767   -2.57415   -2.34091
C     -0.62672   -0.59457    2.35136
C      5.09608   -2.80033   -3.41809
C     -1.72494    0.67879    0.59947
C      4.06540   -0.60497   -3.14327
C      0.54947   -0.08062    0.26972
C      2.95858   -1.18145   -2.51665
C     -0.59279    0.60991   -0.20772
C     -1.76048    0.07525    1.86745
C      5.11687   -1.41542   -3.57670
C      1.82239   -0.24859   -0.49377
C     -0.59084    1.30838   -1.54703
C     -0.58454    0.33802   -2.74363
C      0.44621   -0.79223   -2.61444
C      1.80310   -0.32277   -2.04103
C     -3.01737   -0.36617    3.85531
C      7.60077   -0.26040   -2.91410
O      2.88586   -0.39318    0.09993
O      7.24998   -1.65634   -5.14452
O      6.12508    0.63844   -4.92805
O     -2.93310    0.20384    2.54968
S      6.55132   -0.64177   -4.33817
H      3.94421   -4.45378   -2.65396
H      1.40329   -1.15490    1.91171
H      2.08861   -3.03884   -1.84574
H     -0.61919   -1.06300    3.32880
H      5.91665   -3.40386   -3.79377
H     -2.60811    1.21713    0.26637
H      4.11356    0.46766   -3.30954
H     -1.46319    1.96403   -1.62013
H      0.28475    1.96437   -1.60744
H     -1.58122   -0.10044   -2.86521
H     -0.38059    0.91789   -3.65170
H      0.04491   -1.59057   -1.98138
H      0.61302   -1.23511   -3.60060
H      1.99190    0.69996   -2.39248
H     -4.02331   -0.14272    4.21195
H     -2.28187    0.08288    4.53302
H     -2.87466   -1.45282    3.82462
H      8.49281    0.22639   -3.31414
H      7.05993    0.41163   -2.24657
H      7.86224   -1.19178   -2.41028
