49

C      1.34929    1.09322    0.26972
C     -0.10021   -0.81305   -2.19578
C     -1.72109    1.54561    1.08076
C     -0.56495    2.56251   -0.60883
C     -1.05060    0.39003    0.33924
C      0.02768    1.11461   -0.53010
C      3.45296   -0.51312    1.73653
C      4.11877   -1.07214   -0.63478
C      4.35169    1.30225    0.18590
C     -1.11995   -3.14302   -3.99597
C      0.39838   -1.94030   -5.62013
C      1.37815   -2.94460   -3.52820
C      3.55921   -0.00039    0.30028
C      0.14306   -2.29927   -4.15705
N      0.19317    0.52685   -1.88466
O      1.51551    1.79257    1.24862
O     -0.37079   -1.67266   -1.38921
O      2.35924    0.38572   -3.35879
O      1.67198    2.57036   -2.28496
O     -1.82142    2.54655    0.07936
O      0.39532    1.69973   -4.19300
O      2.19535    0.20983   -0.25042
O     -0.08779   -0.95654   -3.54244
F     -0.50529   -0.53128    1.22075
S      1.33375    1.31856   -2.92729
H     -2.72630    1.29684    1.42578
H     -1.09896    1.86231    1.92742
H      0.12346    3.26548   -0.13595
H     -0.75831    2.86951   -1.63455
H     -1.76643   -0.13055   -0.29438
H      3.06631    0.25420    2.40792
H      2.79468   -1.38582    1.78010
H      4.44719   -0.81396    2.08249
H      4.11469   -0.71566   -1.66788
H      3.51341   -1.98176   -0.57835
H      5.14525   -1.31742   -0.34641
H      4.32296    1.67582   -0.84159
H      3.95760    2.07016    0.85274
H      5.39552    1.10988    0.45410
H     -1.30999   -3.36939   -2.94630
H     -1.98720   -2.61936   -4.40987
H     -0.99668   -4.08399   -4.54188
H      1.28529   -1.30652   -5.71216
H     -0.46363   -1.41874   -6.04934
H      0.56421   -2.85108   -6.20204
H      2.22410   -2.25338   -3.55804
H      1.19564   -3.24161   -2.49465
H      1.63883   -3.83936   -4.10196
H      0.05964    0.85099   -4.55808
