19   
Generated by ForceBalance from scan.xyz: Frame 1 of 24
C        0.5009087298    1.8957159906    0.8113946031
C        1.4248806331    0.9886248283    0.2873349193
C        1.8981728324    2.1466568464    2.7871153244
C        2.8335308890    1.2554757875    2.2470068982
C        0.7535097673    2.4640971533    2.0604985862
C        2.5839094461    0.6732035698    0.9959362975
C        4.8647943510    1.9155516348    3.3512687016
C        5.8734364900    2.2592995687    2.2686323142
O        3.9539451906    0.8880016894    2.9491426859
Br      -0.5067762179    3.7005670408    2.8065811533
Br       3.8539368655   -0.5339158330    0.2385964688
Br       5.1196982663    3.4367971723    0.8651185995
H       -0.3953690604    2.1493498334    0.2559916704
H        1.2486462767    0.5368349056   -0.6833982705
H        2.0676868737    2.5772706507    3.7680119618
H        4.3351374828    2.8119122940    3.6887070677
H        5.4081565650    1.5021812588    4.2076878588
H        6.2237341218    1.3638182641    1.7579433298
H        6.7136234496    2.8125713628    2.6891036159
19   
Generated by ForceBalance from scan.xyz: Frame 2 of 24
C        0.9267225759    2.4931953106    1.7887129827
C        1.4937952850    1.5594773375    0.9195889154
C        2.6070068103    1.9355287227    3.4552116270
C        3.1861625830    1.0142534419    2.5736067668
C        1.4949710369    2.6687201570    3.0517583720
C        2.6177835211    0.8278505261    1.3060042533
C        5.4767882183    0.9609097861    3.2436349412
C        6.2108290399    1.4119780702    1.9857882449
O        4.2640019173    0.2546856668    2.9630928500
Br       0.7246439716    3.9363727147    4.2648197762
Br       3.3882957772   -0.4222987456    0.0835236625
Br       5.7130215361    3.2453587934    1.4190420116
H        0.0586869041    3.0682814423    1.4853907266
H        1.0662825161    1.4082918496   -0.0662097848
H        3.0292144316    2.0654346487    4.4459100354
H        5.2900379878    1.8134244744    3.9050248461
H        6.1113858229    0.2615877701    3.7961757407
H        5.9995164292    0.7549823611    1.1443642123
H        7.2848714076    1.4619170064    2.1625633990
19   
Generated by ForceBalance from scan.xyz: Frame 3 of 24
C        0.0696187590    1.2171064174    1.4755424039
C        0.7625228158    0.2820134361    0.6996441473
C        2.1488779451    1.7547818254    2.6313640815
C        2.8369525052    0.8118379423    1.8569185956
C        0.7802525261    1.9390966140    2.4306170029
C        2.1265999004    0.0789179970    0.8859199653
C        4.9410560382    1.1004821884    3.0403959787
C        5.5735774116    2.4487389921    2.6746098812
O        4.1691982543    0.5460793103    1.9708454983
Br      -0.1317208920    3.2406874041    3.5022544569
Br       3.0406855761   -1.2112820889   -0.1867361808
Br       4.8114419798    4.0086310668    3.6374837448
H       -0.9932401090    1.3749798982    1.3304559773
H        0.2346252335   -0.2951730309   -0.0526070784
H        2.6678799721    2.3621292275    3.3610570526
H        4.3622153799    1.1475312679    3.9664643543
H        5.7418326519    0.3706576798    3.1851569932
H        5.4507950864    2.6541786377    1.6125488957
H        6.6314127599    2.4705038040    2.9301607206
19   
Generated by ForceBalance from scan.xyz: Frame 4 of 24
C        0.2527623201    2.0331860679    2.3767498588
C        0.4130261093    1.2048593036    1.2606413435
C        2.5728276277    1.6030961223    2.9916648890
C        2.7274033092    0.7716165374    1.8738985256
C        1.3413955370    2.2184114378    3.2243668128
C        1.6318434618    0.5829831723    1.0083718777
C        5.0370339291    0.2713908375    2.3884929897
C        5.7425451041    1.6164507982    2.1409814284
O        3.8794961517    0.1145490931    1.5606309751
Br       1.1639359613    3.3543113053    4.7577289585
Br       1.8170740811   -0.5383125900   -0.5270830466
Br       6.0235085683    2.6691469171    3.7979323173
H       -0.6967293557    2.5196687447    2.5702849322
H       -0.4187571333    1.0433955897    0.5825673344
H        3.3959660920    1.7897951708    3.6693825767
H        4.7882509829    0.1186040759    3.4420302407
H        5.6817111225   -0.5456678169    2.0601782383
H        5.1459252416    2.2510744754    1.4882305179
H        6.7350311305    1.4882678196    1.7144425145
19   
Generated by ForceBalance from scan.xyz: Frame 5 of 24
C        0.1766486332    0.9800213892    1.1850208177
C        0.9990106677    0.0884755368    0.4878090802
C        2.0986081781    1.6641461086    2.5214417734
C        2.9173407728    0.7631343169    1.8237914963
C        0.7442607535    1.7548585190    2.1925107267
C        2.3507011581   -0.0197416253    0.7991160563
C        4.8702585057    1.3669534367    3.0957641227
C        5.1339285767    2.7984720026    2.6035806115
O        4.2460727285    0.5850790360    2.0711427540
Br      -0.3546599712    2.9900550849    3.1613159712
Br       3.4500020647   -1.2422936392   -0.1724570486
Br       4.7867159516    4.1380207965    4.0189442238
H       -0.8763854552    1.0648905054    0.9410154668
H        0.5820615206   -0.5260304818   -0.3035278149
H        2.4972256232    2.2970411497    3.3049054408
H        4.2771581360    1.3474318167    4.0132889515
H        5.8120235518    0.8472901872    3.2773472891
H        4.4650399691    3.0604764625    1.7863340304
H        6.1653859015    2.9495560367    2.2924474383
19   
Generated by ForceBalance from scan.xyz: Frame 6 of 24
C        4.6174164916    6.2511555712    4.0740577120
C        3.3381929919    5.9963352182    4.5796276974
C        4.5346156742    4.1274926032    2.8791433482
C        3.2526222717    3.8748031666    3.3910414332
C        5.1940540591    5.3075314047    3.2286620261
C        2.6618345535    4.8275747397    4.2437767988
C        3.0825510811    1.7634564334    2.2438215543
C        2.9383604029    2.2084644819    0.7860266885
O        2.5274818368    2.7525449901    3.1209094178
Br       6.9406854050    5.6251236224    2.5076946334
Br       0.9158558945    4.5136298956    4.9500344838
Br       4.3058456043    1.3360155691   -0.3438767145
H        5.1416765112    7.1637061626    4.3347626826
H        2.8647480298    6.7151803571    5.2405708446
H        5.0235922723    3.4262617398    2.2143389445
H        4.1206404436    1.5474509118    2.5074890852
H        2.4791695007    0.8751421327    2.4345140105
H        3.1080957355    3.2775357343    0.6754702994
H        1.9696610520    1.9460468353    0.3658151493
19   
Generated by ForceBalance from scan.xyz: Frame 7 of 24
C        4.6211950006    6.2693511001    4.0741515086
C        3.3385741211    6.0032563983    4.5644915948
C        4.5749755913    4.1392655108    2.8875457158
C        3.2886859858    3.8753740957    3.3816223578
C        5.2176390599    5.3272645102    3.2408548569
C        2.6794682235    4.8257803534    4.2239978400
C        3.1247616624    1.7723480570    2.2095788969
C        2.9301715370    2.2250992032    0.7653368786
O        2.5772867324    2.7452999854    3.1084244126
Br       6.9707329747    5.6596471986    2.5428419929
Br       0.9290329892    4.4952311045    4.9099965816
Br       3.9573289071    1.0470881074   -0.4415528190
H        5.1331285881    7.1882107726    4.3371284689
H        2.8489832596    6.7199190472    5.2159830111
H        5.0811889024    3.4377917711    2.2364259300
H        4.1749238119    1.5713016759    2.4370160864
H        2.5496492782    0.8664982381    2.4050421166
H        3.3057812922    3.2318965941    0.5936585986
H        1.8879959755    2.1621431266    0.4577669875
19   
Generated by ForceBalance from scan.xyz: Frame 8 of 24
C        2.4517606457   -1.4736151625   -0.2283030818
C        1.1763556449   -0.9737914519    0.0546277725
C        3.0372727919   -1.2209703355    2.1248434190
C        1.7569007189   -0.7207239977    2.4048633236
C        3.3627035445   -1.5884985737    0.8179159423
C        0.8309728715   -0.6007811570    1.3500851578
C        2.2443152817   -0.3672671422    4.7478654590
C        3.1378839396    0.8666473178    4.7134978577
O        1.3303360393   -0.3454686006    3.6436067619
Br       5.1219872373   -2.2637876406    0.4685340461
Br      -0.9176495505    0.0807729634    1.7008690927
Br       4.2958108579    0.8739202471    6.3120640661
H        2.7205705705   -1.7608347636   -1.2386276702
H        0.4462795020   -0.8730668539   -0.7419538699
H        3.7796545702   -1.3312153251    2.9049782350
H        1.6124399699   -0.3524997172    5.6364644305
H        2.8284162663   -1.2917899929    4.7561068722
H        2.5465806972    1.7800558057    4.7515955960
H        3.8017781958    0.8893229438    3.8515394450
19   
Generated by ForceBalance from scan.xyz: Frame 9 of 24
C        2.4772395551   -1.4763095412   -0.2043963096
C        1.1928513779   -0.9850749925    0.0515892382
C        3.0214479336   -1.1997332348    2.1555542697
C        1.7322946392   -0.7074805125    2.4084045867
C        3.3719765300   -1.5750349508    0.8574293667
C        0.8228299964   -0.6039443178    1.3378705091
C        2.1844711786   -0.3527403393    4.7508095829
C        3.1036351332    0.8654629033    4.7277056410
O        1.2853720813   -0.3228665249    3.6376707030
Br       5.1427956200   -2.2359818129    0.5433014009
Br      -0.9378102893    0.0633317658    1.6530703070
Br       4.5327221043    0.6407667977    6.0717996156
H        2.7654680427   -1.7699014177   -1.2075042096
H        0.4755533673   -0.8977079016   -0.7580949802
H        3.7515419944   -1.2957167932    2.9492744404
H        1.5424256618   -0.3225724612    5.6323909742
H        2.7508951273   -1.2874630078    4.7870975993
H        2.5713729043    1.7805761613    4.9806792033
H        3.6081660160    0.9845718405    3.7708330785
19   
Generated by ForceBalance from scan.xyz: Frame 10 of 24
C        2.5187048329   -1.4832465384   -0.1798052904
C        1.2241539596   -1.0099678226    0.0585506569
C        3.0357286005   -1.1659279687    2.1817769957
C        1.7352293173   -0.6940234620    2.4164637090
C        3.4047363594   -1.5519012956    0.8916812264
C        0.8351797546   -0.6181846561    1.3359814583
C        2.1627613165   -0.3262193163    4.7550415437
C        3.1139883912    0.8735669103    4.7191085997
O        1.2709831290   -0.3022437352    3.6373423064
Br       5.1898185158   -2.1854421232    0.6032842700
Br      -0.9389807177    0.0257218652    1.6245473492
Br       4.7739705278    0.4709528506    5.7133996965
H        2.8208832677   -1.7852836564   -1.1763242488
H        0.5130076898   -0.9453389064   -0.7586452978
H        3.7619799102   -1.2339860418    2.9821975156
H        1.5126583389   -0.2659625134    5.6293687649
H        2.7046117670   -1.2734751505    4.8193496145
H        2.6810026251    1.7606626329    5.1767491933
H        3.4311738518    1.1036965524    3.7038185900
19   
Generated by ForceBalance from scan.xyz: Frame 11 of 24
C        0.2632203182   -0.0033936439    1.2925724975
C        0.4394070698    0.9602986238    2.2912667597
C        2.6473794064   -0.5061738610    1.3987555245
C        2.8163807599    0.4566455715    2.4051839678
C        1.3757918568   -0.7209329539    0.8624782815
C        1.6966546053    1.1914055552    2.8406759163
C        5.1775089538    0.0347182393    2.5794833832
C        5.7002953002    0.5843385534    1.2430365772
O        4.0082127100    0.7363012911    3.0062623953
Br       1.1697566860   -2.0428835539   -0.5093184583
Br       1.9067076107    2.5184479334    4.1979162668
Br       6.3380403914   -0.8618725802    0.0516711918
H       -0.7168263498   -0.1813885880    0.8642136116
H       -0.4108846358    1.5353728489    2.6432896937
H        3.4852510315   -1.0808085623    1.0233279067
H        5.9053687129    0.2173528327    3.3718379915
H        5.0040478766   -1.0439207926    2.5395056643
H        6.5410210361    1.2629204453    1.3704033585
H        4.9089210981    1.0862884971    0.6898314383
19   
Generated by ForceBalance from scan.xyz: Frame 12 of 24
C        2.0627129962   -2.5843020531    5.4147850308
C        3.3134307310   -2.5260885190    4.7906658610
C        1.1495133268   -1.1698198168    3.6508846443
C        2.4037542215   -1.1186168408    3.0272134070
C        0.9996507073   -1.9008727781    4.8307810337
C        3.4858878378   -1.8031886724    3.6142890067
C        1.6011258693    0.2589864894    1.2134476505
C        1.2912822158    1.6080610197    1.8861533600
O        2.6569235052   -0.4444204609    1.8697990919
Br      -0.7265768965   -1.9496243681    5.6619627872
Br       5.2081902183   -1.7417422214    2.7901613096
Br      -0.6223734624    1.8261240344    2.3580912260
H        1.9303553296   -3.1461414133    6.3326510993
H        4.1597914664   -3.0487386711    5.2245138100
H        0.2985222185   -0.6399931938    3.2422344107
H        1.9949894688    0.4366000504    0.2107735434
H        0.7080951569   -0.3630345941    1.1051723424
H        1.5222471109    2.4523748350    1.2402975412
H        1.8376546425    1.7074960450    2.8224591621
19   
Generated by ForceBalance from scan.xyz: Frame 13 of 24
C        3.1101010200   -1.4102099152    0.1498945871
C        1.8464410551   -0.8085798048    0.1670596919
C        2.9401200170   -1.7713612054    2.5554655632
C        1.6745044891   -1.1669009823    2.5679328516
C        3.6350747247   -1.8822698676    1.3488503444
C        1.1367503078   -0.6874602279    1.3569208652
C        1.4308151309   -1.4848882307    4.9357106943
C        0.3862717245   -1.1477528449    5.9937358002
O        0.9149377724   -1.0150410848    3.6846197892
Br       5.3624145633   -2.7132780934    1.3577343055
Br      -0.5853824238    0.1361004879    1.3539511292
Br       0.9009343731    0.4050883538    7.1063179965
H        3.6631906131   -1.5042115945   -0.7779089864
H        1.4140417917   -0.4324064232   -0.7544849347
H        3.3853050699   -2.1518185288    3.4657110491
H        1.5847911702   -2.5706743536    4.8860947783
H        2.3838220131   -0.9890658814    5.1425529235
H        0.2493643158   -1.9634914408    6.7008504239
H       -0.5632540620   -0.8956254631    5.5258735444
19   
Generated by ForceBalance from scan.xyz: Frame 14 of 24
C        3.0974874406   -1.3907112509    0.1525362810
C        1.8535915646   -0.7500734612    0.1885131784
C        2.9204770144   -1.8015517533    2.5491031835
C        1.6744074169   -1.1589231628    2.5800935296
C        3.6095252813   -1.9067413404    1.3388925721
C        1.1497090482   -0.6338325099    1.3824253921
C        1.4430603449   -1.5078090826    4.9415960898
C        0.4266836650   -1.1659574492    6.0152150100
O        0.9237614549   -1.0141481674    3.7031113979
Br       5.3086112538   -2.7937253802    1.3270511361
Br      -0.5434100198    0.2462711228    1.4013600066
Br       0.7433867172    0.6149314135    6.8127803660
H        3.6449613333   -1.4801285799   -0.7790323921
H        1.4313208495   -0.3382365502   -0.7224118448
H        3.3553413853   -2.2172630496    3.4489071075
H        1.5698574831   -2.5976406685    4.8835038325
H        2.4070505286   -1.0295288821    5.1424444634
H        0.4910039016   -1.8626705962    6.8496354273
H       -0.5831013852   -1.1574859022    5.6087861451
19   
Generated by ForceBalance from scan.xyz: Frame 15 of 24
C        3.1557005407   -1.4006911428    0.1701160913
C        1.9227159452   -0.7383231653    0.1855773679
C        2.9159549958   -1.8414050046    2.5550570915
C        1.6820708629   -1.1749887172    2.5656745835
C        3.6313196635   -1.9428074253    1.3600499946
C        1.1929284102   -0.6249485753    1.3641720136
C        1.4049532243   -1.5192301511    4.9201417355
C        0.3958327252   -1.1534949604    5.9859692652
O        0.9108627814   -1.0277998492    3.6740291953
Br       5.3149244148   -2.8599110134    1.3763413383
Br      -0.4847317677    0.2847486038    1.3565693541
Br       0.4785541819    0.7637321970    6.4553806497
H        3.7231888231   -1.4864620031   -0.7497271096
H        1.5296761421   -0.3060548203   -0.7289654109
H        3.3208347216   -2.2790204186    3.4584620385
H        1.5018782414   -2.6138242347    4.8782941696
H        2.3819696343   -1.0739786918    5.1371640231
H        0.6009164781   -1.6935557766    6.9096440674
H       -0.6218904826   -1.3488929167    5.6515059269
19   
Generated by ForceBalance from scan.xyz: Frame 16 of 24
C        3.3012461448   -1.1442496190    0.6740481363
C        1.9857493927   -0.6660707506    0.6570768954
C        3.1369960600   -1.4237257043    3.0896626855
C        1.8215449335   -0.9384986904    3.0677115398
C        3.8547043574   -1.5163264563    1.8952051866
C        1.2523827373   -0.5633081915    1.8345680589
C        1.5981108781   -1.1386777874    5.4408545652
C        0.5699752132   -0.8441851512    6.5093090354
O        1.0436875790   -0.8069598459    4.1740982111
Br       5.6544641904   -2.1752713465    1.9577392022
Br      -0.5400525981    0.0895867450    1.7823530530
Br       0.1085756108    1.0742057405    6.5885745165
H        3.8711072198   -1.2213668373   -0.2451352761
H        1.5306375932   -0.3696620809   -0.2824767252
H        3.6043345206   -1.7263215909    4.0178236650
H        1.8281718065   -2.2149368616    5.4775832485
H        2.5259965798   -0.5859328367    5.6294679327
H        0.9556042787   -1.1135894053    7.4920427478
H       -0.3655904714   -1.3671282292    6.3148580572
19   
Generated by ForceBalance from scan.xyz: Frame 17 of 24
C        2.6860615360   -1.0594337804    0.1559843719
C        1.4869593660   -0.4196294075    0.4912558216
C        2.8884539529   -1.8250641987    2.4613534975
C        1.6899954367   -1.1772390054    2.7930586066
C        3.3671796569   -1.7534517866    1.1511866691
C        0.9923603734   -0.4754012025    1.7901161272
C        1.8379116267   -1.8345234916    5.0856733283
C        1.0760995009   -1.6599379397    6.3850384582
O        1.1433797314   -1.1801488915    4.0370297580
Br       5.0140566510   -2.6399293245    0.7270405613
Br      -0.6448558119    0.4034802695    2.2233146226
Br       0.5835157942    0.2201638527    6.7285244813
H        3.0710291938   -1.0126157502   -0.8565263526
H        0.9364011333    0.1282783522   -0.2666516341
H        3.4464512076   -2.3794411949    3.2049235163
H        1.8874332963   -2.9157508552    4.8808612125
H        2.8720414859   -1.4832670758    5.1873916624
H        1.6790754142   -1.9966613717    7.2273940539
H        0.1289683884   -2.1974703323    6.3646807332
19   
Generated by ForceBalance from scan.xyz: Frame 18 of 24
C        0.4987186673    1.5948077500    1.1683046561
C        1.3958616777    0.7826858936    0.4666679245
C        2.1240603059    1.7735989573    2.9752439816
C        3.0241870332    0.9690724895    2.2644912555
C        0.8814684173    2.0760203742    2.4170823275
C        2.6421571280    0.4739257458    1.0037848550
C        4.8480255151    1.3509106792    3.7810307638
C        5.1767406523    2.8173690085    3.4639183614
O        4.2532214600    0.6057091972    2.7296676312
Br      -0.3211621198    3.1897079260    3.4117390009
Br       3.8514778012   -0.6171304561    0.0131186524
Br       5.6029585728    3.1183135612    1.5619706026
H       -0.4682149576    1.8427551203    0.7450328281
H        1.1245220751    0.3951649462   -0.5100246662
H        2.3744614541    2.1586243853    3.9554522762
H        4.2078266884    1.3375623376    4.6749442599
H        5.7534522358    0.8068444218    4.0526449404
H        6.0401519734    3.1432422536    4.0429613082
H        4.3395908512    3.4844570967    3.6590129194
19   
Generated by ForceBalance from scan.xyz: Frame 19 of 24
C        0.5024281504    1.9553587206    1.4168812073
C        1.2072926182    0.9957214781    0.6823321482
C        2.3242385139    2.0068326458    3.0341785564
C        3.0267017193    1.0454517863    2.2955785839
C        1.0781228250    2.4456724431    2.5852155608
C        2.4515171025    0.5448522493    1.1121548858
C        4.8944951563    1.0428840449    3.8066288651
C        5.5205118648    2.4539604133    3.6960509226
O        4.2425131506    0.5450224962    2.6493481460
Br       0.1508978379    3.7718571471    3.6139150585
Br       3.3902296175   -0.7590357352    0.0828100515
Br       5.6918575041    3.1166211421    1.8485860582
H       -0.4652849681    2.3083377769    1.0785461825
H        0.7832813447    0.5974647888   -0.2338253402
H        2.7365913989    2.4254124095    3.9426621210
H        4.2040961969    1.0373870971    4.6599978619
H        5.6708851718    0.3118102499    4.0358052001
H        6.5250414729    2.4588769756    4.1159885703
H        4.9216741421    3.2103188833    4.2002333741
19   
Generated by ForceBalance from scan.xyz: Frame 20 of 24
C        0.4798362772    1.4822640419    1.1086620530
C        1.3579652701    0.6149804629    0.4501742183
C        2.2091453951    1.9233892912    2.7669453885
C        3.0833132917    1.0478451428    2.1088281523
C        0.9249276076    2.1246216621    2.2606876900
C        2.6421297748    0.3981375080    0.9409798161
C        4.8159550870    1.3172239487    3.7515696810
C        5.3467060022    2.7767609657    3.7069363580
O        4.3530233743    0.7784857628    2.5221490291
Br      -0.2421657888    3.3374736340    3.1796786619
Br       3.8191473937   -0.7855088994    0.0150406656
Br       5.2168845487    3.6549719916    1.9471523918
H       -0.5199357968    1.6510837395    0.7246337426
H        1.0380552942    0.1034112666   -0.4518751625
H        2.5232062453    2.4692386688    3.6469430747
H        4.0346974791    1.2363473672    4.5149843823
H        5.6300378987    0.6553765015    4.0521407141
H        6.4037697258    2.8125459094    3.9632785076
H        4.7953051717    3.4238962392    4.3876808271
19   
Generated by ForceBalance from scan.xyz: Frame 21 of 24
C        0.4481298223    1.2357792110    1.0259911804
C        1.4343232199    0.4920536089    0.3701564487
C        2.0932844511    1.8749993302    2.7064084129
C        3.0762239763    1.1195246863    2.0523358458
C        0.7991564325    1.9177054910    2.1880962845
C        2.7303673672    0.4313067457    0.8742595977
C        4.7483092957    1.5102536105    3.7489608754
C        5.3012264247    2.9567019318    3.7431865066
O        4.3662382311    1.0027906637    2.4746797196
Br      -0.5203493910    2.9660838642    3.1035813688
Br       4.0532894939   -0.5915273964   -0.0477641510
Br       4.8139076218    4.0349696137    2.1662179271
H       -0.5614396834    1.2815651661    0.6332988032
H        1.1899287915   -0.0475676464   -0.5391167962
H        2.3301475582    2.4547020337    3.5887097706
H        3.9288483576    1.4061170750    4.4647992888
H        5.5606117125    0.8454597269    4.0529277220
H        6.3893556005    2.9548318996    3.7355694429
H        4.9511069351    3.5140392922    4.6114801311
19   
Generated by ForceBalance from scan.xyz: Frame 22 of 24
C        0.5540821175    1.0921680346    0.8679091086
C        1.5657060577    0.2527610660    0.3911314057
C        2.0883037207    1.9170810039    2.5739361583
C        3.0960773638    1.0647864163    2.1018424232
C        0.8377953442    1.9131757359    1.9562328046
C        2.8179747363    0.2353732146    0.9987525669
C        4.6565120195    1.5820434345    3.8858973465
C        5.4244832153    2.9058337396    3.7616032050
O        4.3492477123    0.9806107971    2.6291887195
Br      -0.5170123056    3.0942015054    2.6255981424
Br       4.1752759263   -0.9254700987    0.3219816933
Br       4.8748021835    4.0331421538    2.2386944536
H       -0.4221920318    1.1037948047    0.3964293141
H        1.3750818706   -0.3968596461   -0.4570245574
H        2.2759065559    2.6062462666    3.3862738924
H        3.7637870814    1.6814438887    4.5066572478
H        5.3375591037    0.8583384769    4.3449990031
H        6.4820862549    2.7221226149    3.5810867748
H        5.3092148066    3.5077130870    4.6631255043
19   
Generated by ForceBalance from scan.xyz: Frame 23 of 24
C        0.4904260721    0.9481424068    1.0464683353
C        1.5065790319    0.2450698434    0.3929349996
C        2.1379578697    1.8051712923    2.6255916865
C        3.1516694026    1.0837343238    1.9787574141
C        0.8275329458    1.7192485688    2.1568692164
C        2.8194973637    0.3058811920    0.8539985217
C        4.8319621356    1.3674419888    3.7074660166
C        5.6594558165    2.6384262872    3.8375344793
O        4.4625021738    1.1127649317    2.3490743092
Br      -0.5395186214    2.7123867318    3.0638779488
Br       4.1824032155   -0.6789599625   -0.0525065189
Br       4.8261564606    4.2044216672    2.9707901158
H       -0.5330456649    0.8949316750    0.6923754514
H        1.2724727463   -0.3627974064   -0.4750259525
H        2.3697636641    2.4568518841    3.4579729361
H        3.9621816613    1.3713217717    4.3670109036
H        5.4869597146    0.5273622669    3.9696292296
H        6.6203174952    2.5284372605    3.3370816779
H        5.8150179633    2.8941582058    4.8859492864
19   
Generated by ForceBalance from scan.xyz: Frame 24 of 24
C        0.6853560402    1.1633386316    0.7372663724
C        1.8582138992    0.5404523966    0.3025009417
C        1.7268359880    1.5576661393    2.9018352940
C        2.9097100722    0.9568628997    2.4521189673
C        0.6389878475    1.6635830907    2.0380829501
C        2.9615913209    0.4393210626    1.1479779726
C        4.4665300310    1.8750392724    4.0638471148
C        5.5607973637    2.6607587261    3.3644190517
O        3.9976364198    0.7838386316    3.2645223247
Br      -0.9636469013    2.5061507383    2.6687152410
Br       4.5631056432   -0.3830870209    0.5160381807
Br       4.9135937257    3.5851980991    1.7412406833
H       -0.1689123300    1.2518665940    0.0752457943
H        1.9181083323    0.1437544035   -0.7057800022
H        1.6538781327    1.9296531329    3.9173489180
H        3.6517086629    2.5303838117    4.3812132893
H        4.9072950325    1.3977007742    4.9460683604
H        6.3591063298    2.0024663799    3.0249976424
H        5.9598361501    3.4346102584    4.0213970650
