29   

C        1.8452233026   -3.6859425028   -0.9187652202
C        0.8848364720   -3.5530002298    0.0701337223
C        5.3029958860    1.3381230034    0.0192985488
C        5.9503956199    1.1948141497   -1.1981196059
C        2.7224258228   -2.6349551457   -1.1765843893
C        0.7894938910   -2.3548797658    0.7718727159
C        4.2202165525    0.5032627019    0.2715061079
C        5.5085082673    0.2260835317   -2.0997744826
C        2.6735102619   -1.4065386280   -0.4628430914
C        1.6469081890   -1.2660116751    0.5149330792
C        3.7831421112   -0.4293819808   -0.6924102924
C        1.1423130571    1.1626295117    0.3374940212
C        0.8134455710   -0.0250763098    2.5284657955
N        4.4623654186   -0.5743732244   -1.8512594762
N        1.3596323399   -0.0422222506    1.1606563375
H        1.9255407746   -4.6088070056   -1.4819010774
H        0.2020438134   -4.3679118457    0.2818321601
H        5.6366663122    2.0624684540    0.7550541610
H        6.8020038773    1.8136566077   -1.4506891927
H        3.4797252675   -2.8086429706   -1.9328698418
H       -0.0035354695   -2.2640888259    1.5010487794
H        3.7372699573    0.5600037419    1.2359227964
H        6.0337553515    0.1127452962   -3.0408761279
H        1.4035716981    0.9801925936   -0.7093323846
H        1.7522275515    1.9917918974    0.7082922298
H        0.0872193661    1.4515871817    0.3702713746
H        1.0861652435    0.9080743664    3.0308978705
H        1.2252086365   -0.8526485615    3.1149298850
H       -0.2776320944   -0.1103898635    2.5037247715
29   

C        1.8976236193   -3.7418112584   -0.8424185628
C        0.8965256355   -3.5797019786    0.1043806758
C        5.3461012911    1.2351628206    0.1032203157
C        5.8501504386    1.2613566904   -1.1895325439
C        2.7821042364   -2.6957707309   -1.0971301140
C        0.7706769157   -2.3610931111    0.7696276184
C        4.3027267285    0.3543306331    0.3634790220
C        5.3070204029    0.4139197827   -2.1583256770
C        2.6941234735   -1.4565919458   -0.4191014052
C        1.6369080243   -1.2790541895    0.5145080442
C        3.7783665851   -0.4592762850   -0.6577745888
C        1.2515751846    1.1741087832    0.2981882275
C        0.7385738332    0.0136092212    2.4668576507
N        4.3001609627   -0.4334765302   -1.9010752518
N        1.3606837942   -0.0375518283    1.1330089766
H        1.9998398643   -4.6803250093   -1.3752896455
H        0.2066989193   -4.3896014034    0.3124814502
H        5.7543211548    1.8691149711    0.8834908622
H        6.6644285920    1.9239958283   -1.4539002952
H        3.5734382618   -2.8626984721   -1.8199682546
H       -0.0472889500   -2.2520618641    1.4680807255
H        3.8962793866    0.2792843808    1.3634585753
H        5.7173598354    0.4393672182   -3.1610135944
H        1.4709543648    0.9544859767   -0.7511007954
H        1.9463215602    1.9428252395    0.6490590771
H        0.2310742019    1.5669964263    0.3429041617
H        0.9866920338    0.9575503910    2.9619514923
H        1.1139773808   -0.8007225947    3.0947465283
H       -0.3497885216   -0.0681352920    2.3828660568
29   

C        1.9323777868   -3.8049250819   -0.7679772238
C        0.8973155702   -3.6078659227    0.1380806792
C        5.4024381252    1.1178168937    0.1568465565
C        5.7538770615    1.3157012509   -1.1719147184
C        2.8303327726   -2.7701030538   -1.0234772579
C        0.7522298713   -2.3679876868    0.7630143904
C        4.4013519367    0.1898624894    0.4187230890
C        5.1030867951    0.5900265234   -2.1741263209
C        2.7177184600   -1.5199625320   -0.3814660989
C        1.6331032205   -1.2986721885    0.5061115081
C        3.7813441371   -0.5063832564   -0.6318730151
C        1.3402396547    1.1654793731    0.2415849501
C        0.6977619457    0.0518293605    2.3999476119
N        4.1380335550   -0.3043151350   -1.9143957323
N        1.3701986837   -0.0390571721    1.0932340856
H        2.0462625936   -4.7590718098   -1.2697901634
H        0.1960647579   -4.4080575521    0.3455594700
H        5.8891519389    1.6618545140    0.9596626616
H        6.5276443405    2.0235354606   -1.4408012392
H        3.6454534510   -2.9395810904   -1.7189837743
H       -0.0872959184   -2.2340784253    1.4309357866
H        4.0853093988   -0.0099378201    1.4348402971
H        5.3904633777    0.7549000462   -3.2059381100
H        1.5196043447    0.9134762854   -0.8080591851
H        2.0979886551    1.8834943003    0.5682767880
H        0.3538949559    1.6364919055    0.2962232598
H        0.9386862464    1.0045319067    2.8817268190
H        1.0388055062   -0.7511550164    3.0611332843
H       -0.3874909298   -0.0187202726    2.2757046091
29   

C        1.9521186942   -3.8358071106   -0.6827136119
C        0.8841136861   -3.5979699316    0.1761818138
C        5.5059614008    0.9887176724    0.1974812423
C        5.6985272244    1.3633758725   -1.1261354982
C        2.8682999442   -2.8171748985   -0.9402863557
C        0.7262871630   -2.3357131631    0.7540141708
C        4.5333409115    0.0287053402    0.4511352866
C        4.9220548274    0.7770832063   -2.1306922446
C        2.7372984111   -1.5498919047   -0.3437834735
C        1.6264035381   -1.2835485427    0.4945676865
C        3.7936252875   -0.5290809385   -0.6023128492
C        1.4093180849    1.1837246469    0.1769343040
C        0.6682225029    0.1254377622    2.3322039762
N        3.9851715762   -0.1488208023   -1.8783368177
N        1.3749869538   -0.0066500352    1.0475494992
H        2.0744292892   -4.8074378644   -1.1476375473
H        0.1678892135   -4.3847227095    0.3839137223
H        6.0875961434    1.4268895334    1.0019175030
H        6.4417620000    2.1053173501   -1.3891543293
H        3.7055525347   -3.0062493478   -1.6034740469
H       -0.1341892746   -2.1717679210    1.3877685701
H        4.3247565987   -0.2994041108    1.4615737097
H        5.0829522764    1.0826801277   -3.1578816277
H        1.5346180228    0.9010265624   -0.8726694382
H        2.2278383653    1.8479483653    0.4686613013
H        0.4627006629    1.7278860003    0.2505617189
H        0.9116932601    1.0850628077    2.7987778877
H        0.9779010840   -0.6671412899    3.0208149697
H       -0.4141758742    0.0693565635    2.1793535933
29   

C        1.9991513606   -3.8552329345   -0.6173066905
C        0.8983972880   -3.5981278051    0.1942953831
C        5.6666834839    0.8111548929    0.1971944526
C        5.6939050808    1.3925562966   -1.0640869797
C        2.9155260744   -2.8370061217   -0.8771661058
C        0.7113022200   -2.3192673872    0.7259605402
C        4.6976418812   -0.1580435397    0.4294025564
C        4.7636760195    0.9938578746   -2.0292311569
C        2.7479762081   -1.5525159347   -0.3314225761
C        1.6123390347   -1.2690391655    0.4639839547
C        3.8007642451   -0.5217667704   -0.5846063487
C        1.3735859757    1.1850483979    0.0906189261
C        0.6378868443    0.1680099176    2.2684200314
N        3.8312553497    0.0582504442   -1.7972424269
N        1.3486094522    0.0160024240    0.9884329423
H        2.1456801486   -4.8411343008   -1.0436013085
H        0.1814219579   -4.3838817730    0.4032382551
H        6.3695526209    1.1015113088    0.9712149689
H        6.4252951037    2.1526034084   -1.3078842206
H        3.7775865201   -3.0387080766   -1.5035232564
H       -0.1688766095   -2.1410941176    1.3281631431
H        4.6138633531   -0.6417798099    1.3940970323
H        4.7959912640    1.4598596655   -3.0070748676
H        1.4187984085    0.8718117156   -0.9566788566
H        2.2334572033    1.8226578290    0.3146929147
H        0.4546593168    1.7675136995    0.2082165186
H        0.8758243507    1.1371366460    2.7179227319
H        0.9498866935   -0.6104785344    2.9718926905
H       -0.4438228615    0.1036419844    2.1142292153
29   

C        2.0277114857   -3.8399205900   -0.5268828807
C        0.8937516026   -3.5635986293    0.2308342168
C        5.8732923550    0.5715718517    0.1201009360
C        5.7549460737    1.3688908484   -1.0109119129
C        2.9431821480   -2.8220562089   -0.7921198867
C        0.6772197694   -2.2681606298    0.7079520075
C        4.8744631084   -0.3696669492    0.3415083916
C        4.6598669128    1.1994907907   -1.8636903603
C        2.7384016235   -1.5168157545   -0.3114322746
C        1.5784643829   -1.2201666268    0.4409067150
C        3.8010539589   -0.4901630182   -0.5520688742
C        1.2019758543    1.1923467864   -0.0190346268
C        0.6259404931    0.2381516725    2.2327677988
N        3.7004877330    0.2889410562   -1.6428202385
N        1.2929232207    0.0708944409    0.9317301606
H        2.2007944824   -4.8406452710   -0.9061328777
H        0.1766884409   -4.3482293514    0.4436865760
H        6.7087949281    0.6782242011    0.8042079348
H        6.4999940184    2.1203089610   -1.2395363771
H        3.8320682219   -3.0408688168   -1.3734632801
H       -0.2223960567   -2.0736302009    1.2756868108
H        4.9052936408   -1.0180958379    1.2075355057
H        4.5817338806    1.8296010938   -2.7418793531
H        1.2106401942    0.8287053128   -1.0509465369
H        2.0331035022    1.8878147868    0.1275989859
H        0.2577227030    1.7273698222    0.1208442498
H        0.8772596083    1.2136929558    2.6605177386
H        0.9627737237   -0.5309793789    2.9350547022
H       -0.4602110529    0.1687680252    2.1166400079
29   

C        2.0655836930   -3.8299075867   -0.4288452259
C        0.8907956513   -3.5332584258    0.2546273024
C        6.0386794204    0.3698761008   -0.0107284474
C        5.8141100822    1.3436557244   -0.9746672545
C        2.9872171065   -2.8155104657   -0.6864010675
C        0.6443294950   -2.2226330445    0.6703159037
C        5.0198560433   -0.5489546547    0.2140198668
C        4.6004175829    1.3608105258   -1.6681903110
C        2.7485589061   -1.4906342462   -0.2763564969
C        1.5531230807   -1.1799265895    0.4123991245
C        3.8190005471   -0.4725845785   -0.5076524980
C        0.9829091465    1.1656678052   -0.1352991328
C        0.6352856227    0.2978676828    2.1948571878
N        3.6235733801    0.4697050989   -1.4463316166
N        1.2369795976    0.1153469523    0.8648404105
H        2.2650690163   -4.8437161746   -0.7569871044
H        0.1677162529   -4.3142396439    0.4604448213
H        6.9693338573    0.3273422966    0.5456046950
H        6.5674443777    2.0889532690   -1.1959364313
H        3.9059803444   -3.0532483122   -1.2110617744
H       -0.2810139060   -2.0086971552    1.1879625982
H        5.1345152698   -1.3299432256    0.9544430802
H        4.4411158549    2.1253294885   -2.4195037264
H        1.0380499072    0.7588827068   -1.1497648289
H        1.7117035162    1.9746861280   -0.0327097702
H       -0.0247850951    1.5722431987   -0.0059972435
H        0.9103174117    1.2769711452    2.5990489281
H        1.0023410313   -0.4662074675    2.8874648508
H       -0.4553909625    0.2293129731    2.1331662616
29   

C        0.8204678580   -2.5556806325   -2.1783463043
C       -0.1010282245   -2.6036774398   -1.1392838973
C        5.8823535371    0.0032284864   -1.0072330353
C        5.6896692295    1.3660165596   -0.8181642753
C        1.9867186977   -1.8081045223   -2.0286313684
C        0.1595979794   -1.9205233316    0.0504596662
C        4.7517995668   -0.8062006728   -1.0042051445
C        4.3948340557    1.8642428447   -0.6404735618
C        2.2570034697   -1.0996067603   -0.8417958165
C        1.3395936364   -1.1733106599    0.2405221439
C        3.4803988700   -0.2467082653   -0.8034165243
C        0.4460942397   -0.1260533308    2.3380885305
C        2.9044939106   -0.6173286917    2.1362458137
N        3.3098066464    1.0782095624   -0.6385770791
N        1.5704318384   -0.5963330527    1.5128819212
H        0.6273347293   -3.0861593003   -3.1038430802
H       -1.0143652811   -3.1774809164   -1.2472576140
H        6.8739484119   -0.4127609174   -1.1534189950
H        6.5297110237    2.0489472232   -0.8109986253
H        2.6838949008   -1.7505878262   -2.8570770764
H       -0.5617823717   -2.0070311849    0.8510439959
H        4.8386648742   -1.8752949018   -1.1487683330
H        4.2611090743    2.9304018094   -0.4998394345
H       -0.3372161875    0.3039975647    1.7057999431
H        0.7826502109    0.6559721604    3.0258337658
H        0.0293519627   -0.9542223162    2.9197750543
H        3.3401369387    0.3859302084    2.1431679494
H        3.5755606807   -1.3001957810    1.6077353541
H        2.8267750657   -0.9813124336    3.1652609301
29   

C        0.9611667721   -2.6128876053   -2.1172832344
C       -0.0102822467   -2.6103509042   -1.1255574000
C        5.9462028932    0.0614462792   -1.1272119938
C        5.7670957571    1.3805232839   -0.7321557943
C        2.1302638698   -1.8772435630   -1.9371131360
C        0.2040965032   -1.8910180851    0.0506736893
C        4.8262023297   -0.7627141281   -1.1259352973
C        4.4956215370    1.8225948607   -0.3555406211
C        2.3613215605   -1.1280225333   -0.7636400196
C        1.3849277220   -1.1540145169    0.2749929348
C        3.5733740465   -0.2628370353   -0.7303870079
C        0.4083676894   -0.0627562320    2.3171794688
C        2.8683035070   -0.5756916775    2.2299597162
N        3.4211507261    1.0226625513   -0.3550344380
N        1.5615120677   -0.5593024935    1.5494464574
H        0.8031419902   -3.1707404847   -3.0333277602
H       -0.9270656494   -3.1732347152   -1.2589000991
H        6.9206230641   -0.3114191888   -1.4257934362
H        6.5998910256    2.0720591563   -0.7139077444
H        2.8549540696   -1.8571910606   -2.7430765615
H       -0.5564922154   -1.9429244979    0.8171563271
H        4.9141600990   -1.8001095601   -1.4209036802
H        4.3713309529    2.8553169623   -0.0516027417
H       -0.3489723661    0.3516975408    1.6443009710
H        0.7221134914    0.7372858143    2.9949225682
H       -0.0328646110   -0.8731757683    2.9058319187
H        3.3096058362    0.4253676739    2.2385620031
H        3.5570220178   -1.2704681527    1.7402411476
H        2.7460428430   -0.9154095525    3.2629885603
29   

C        1.0242146482   -2.7125383698   -2.0523548092
C        0.0181865699   -2.6469571809   -1.1005575822
C        5.9337162442    0.1223500162   -1.2986084697
C        5.7821676573    1.3842220870   -0.7424020131
C        2.1987703031   -1.9877359916   -1.8652193965
C        0.2047793541   -1.8774246898    0.0462713043
C        4.8281771863   -0.7211890919   -1.2815601992
C        4.5522941068    1.7503276303   -0.1915577467
C        2.4117910602   -1.1865116099   -0.7181655487
C        1.3902951325   -1.1512207640    0.2807733150
C        3.6066856804   -0.2966030312   -0.7211571715
C        0.3676230902    0.0320404012    2.2495966215
C        2.7948121746   -0.6251077737    2.2995851456
N        3.4927001344    0.9315758963   -0.1771672848
N        1.5305690958   -0.5334774394    1.5479537903
H        0.8872139686   -3.3075272967   -2.9482264790
H       -0.9038329666   -3.1994259631   -1.2412307482
H        6.8785013639   -0.1950752878   -1.7278842933
H        6.6052357639    2.0873588885   -0.7277745336
H        2.9318733062   -2.0158374200   -2.6622106519
H       -0.5822854589   -1.8834298710    0.7873523185
H        4.9173293493   -1.7186850542   -1.6896139591
H        4.4484711628    2.7376680012    0.2428411807
H       -0.3479043221    0.4458161936    1.5321241586
H        0.6844904296    0.8456216360    2.9094516267
H       -0.1251501531   -0.7397038443    2.8493204377
H        3.2543564648    0.3629782262    2.3981257422
H        3.4996556192   -1.2986009672    1.8029480095
H        2.6058530681   -1.0276525545    3.2993735347
29   

C        1.0751968527   -2.7985034449   -1.9570082374
C        0.0433866271   -2.6735619184   -1.0428384337
C        5.8975175010    0.2212734537   -1.4557996094
C        5.7994423626    1.4059687104   -0.7440192431
C        2.2529186952   -2.0782119323   -1.7736044223
C        0.2086660982   -1.8505321910    0.0668467376
C        4.8055832214   -0.6398680097   -1.4232639635
C        4.6357236923    1.6775905134   -0.0253983988
C        2.4550287211   -1.2195321700   -0.6608442599
C        1.3962359170   -1.1277420378    0.3014249714
C        3.6355797977   -0.3075149943   -0.7014551603
C        0.3299902961    0.1644690657    2.1773460888
C        2.7006413498   -0.6503445539    2.3889597732
N        3.5903264434    0.8419674762    0.0017265140
N        1.4978831251   -0.4777441537    1.5550223567
H        0.9552825756   -3.4349109696   -2.8265245968
H       -0.8816377544   -3.2211674622   -1.1828684143
H        6.7948841319   -0.0279376078   -2.0128170685
H        6.6148218700    2.1180346451   -0.7330245143
H        2.9844272392   -2.1634532501   -2.5655504799
H       -0.5984047945   -1.8125696590    0.7851784675
H        4.8884077753   -1.5801563119   -1.9476362982
H        4.5727355412    2.6026217052    0.5355446095
H       -0.3392765099    0.5669699771    1.4105913811
H        0.6513876698    0.9973136686    2.8103267506
H       -0.2167796682   -0.5581616336    2.7913850108
H        3.1805326897    0.3161111867    2.5710973514
H        3.4217767998   -1.3159227018    1.9048479633
H        2.4286383558   -1.0977126351    3.3497060539
29   

C        1.1245075932   -2.8972431179   -1.8586667037
C        0.0825582018   -2.7387729649   -0.9648156449
C        5.8006965178    0.3909853626   -1.6592767109
C        5.8307639812    1.4145393541   -0.7290113666
C        2.2945540640   -2.1589673360   -1.6989525187
C        0.2334138389   -1.8663624240    0.1056963083
C        4.7151615920   -0.4789829877   -1.6275947155
C        4.7932510753    1.5245924140    0.1924907107
C        2.4829041409   -1.2337196012   -0.6328496113
C        1.4110289171   -1.1211462592    0.3171637431
C        3.6679133062   -0.3207191881   -0.6821049408
C        0.3025004746    0.3176525208    2.0512811961
C        2.5593213726   -0.7047257852    2.4913645481
N        3.7549422636    0.6810903444    0.2162149382
N        1.4684918805   -0.4203819827    1.5427628451
H        1.0221333819   -3.5818157525   -2.6931815340
H       -0.8358855022   -3.3016618900   -1.0864685058
H        6.5965846326    0.2706564493   -2.3870997327
H        6.6475705730    2.1246418884   -0.7065048975
H        3.0282636357   -2.3175677409   -2.4737208926
H       -0.5779234047   -1.8029672832    0.8177843733
H        4.7259605188   -1.2746461349   -2.3534584716
H        4.8257707333    2.3251661983    0.9220870686
H       -0.3254592864    0.6602340044    1.2229424504
H        0.6310923592    1.1989944980    2.6104276635
H       -0.2921503132   -0.3227908550    2.7104510681
H        3.0632574369    0.2230045284    2.7795942304
H        3.2983636781   -1.3774933553    2.0450804496
H        2.1610385762   -1.1888358567    3.3880582288
29   

C        1.2185383255   -2.9899740185   -1.7888563555
C        0.2062773623   -2.8682818954   -0.8540214380
C        5.6132454928    0.6394932093   -1.9216758270
C        5.9287289350    1.3395600575   -0.7703903672
C        2.3506686889   -2.1840671097   -1.6920658910
C        0.3494851667   -1.9577444888    0.1867602555
C        4.5030851399   -0.1978871210   -1.8817856401
C        5.1296858532    1.1841470827    0.3597565478
C        2.5151548490   -1.2122444079   -0.6666934756
C        1.4848189032   -1.1357076651    0.3225339213
C        3.7300446921   -0.3439813381   -0.7017562832
C        0.3314570803    0.5094968843    1.8001265657
C        2.4075630533   -0.6805068222    2.5713587332
N        4.0663923503    0.3719312448    0.3884766887
N        1.4994771697   -0.3203789334    1.4698541599
H        1.1311694716   -3.7129847739   -2.5920501310
H       -0.6803281596   -3.4885366445   -0.9203429407
H        6.2026408350    0.7498923610   -2.8261055241
H        6.7780054942    2.0101458622   -0.7402896116
H        3.1072409944   -2.3569970967   -2.4440593878
H       -0.4344725573   -1.9046432118    0.9304630608
H        4.2417659275   -0.7024313264   -2.7985045822
H        5.3775624948    1.7427580972    1.2546192502
H       -0.2640610159    0.7082596932    0.9034903084
H        0.6584812170    1.4700801098    2.2093865816
H       -0.2992678435    0.0004068705    2.5358766527
H        2.9351938528    0.2079223333    2.9315969903
H        3.1508464312   -1.4111361560    2.2365890650
H        1.8430980930   -1.1245394013    3.3968127842
29   

C        1.2679287973   -3.0448629354   -1.7394479748
C        0.2713158044   -2.9560985293   -0.7796430881
C        5.4248363691    0.8461537978   -1.9373900272
C        5.9274892602    1.2956899330   -0.7266361249
C        2.3735076922   -2.1993130348   -1.6668901162
C        0.3965651492   -2.0283024047    0.2516267433
C        4.3101930344    0.0154988151   -1.8983442228
C        5.3041982194    0.9073235623    0.4596578241
C        2.5180303704   -1.2332908567   -0.6401466605
C        1.5030560572   -1.1656709845    0.3552134321
C        3.7231937656   -0.3583729363   -0.6691720454
C        0.3249216066    0.5796332718    1.6708797937
C        2.3093789757   -0.6316407077    2.6227200298
N        4.2338275198    0.1031775503    0.4870872721
N        1.4955302117   -0.2812276703    1.4473158494
H        1.1894901956   -3.7726124298   -2.5392205620
H       -0.5931292661   -3.6086665411   -0.8249769204
H        5.8766316255    1.1392842481   -2.8794353713
H        6.7906581090    1.9479727104   -0.6902294631
H        3.1386988181   -2.3211963716   -2.4235668027
H       -0.3788763558   -1.9817546520    1.0048837892
H        3.8801043056   -0.3179507685   -2.8321722416
H        5.7024030153    1.2693234795    1.4002236864
H       -0.2276990127    0.7249184533    0.7372114929
H        0.6458699881    1.5614868459    2.0316332526
H       -0.3453563711    0.1259721159    2.4078795393
H        2.8649676167    0.2439755509    2.9716779267
H        3.0273168615   -1.4200050281    2.3748754167
H        1.6692644319   -0.9992607935    3.4304450749
29   

C        1.3276539419   -3.1265608421   -1.6684374831
C        0.3213925540   -3.0288392738   -0.7159204608
C        5.2665340815    1.0029324292   -1.9004759385
C        5.9152768494    1.2700691403   -0.7036368810
C        2.4215731160   -2.2641603806   -1.6068046325
C        0.4208954578   -2.0707812684    0.2929780076
C        4.1583415080    0.1646055276   -1.8514543070
C        5.4403757587    0.6975752696    0.4786816492
C        2.5402204025   -1.2863573189   -0.5942492660
C        1.5156377166   -1.1928646973    0.3818408038
C        3.7219663395   -0.3814695332   -0.6292212033
C        0.3147718076    0.5972578029    1.6075824323
C        2.3034727724   -0.5494121520    2.6253320510
N        4.3741048070   -0.1126235608    0.5161220552
N        1.4987064691   -0.2557628351    1.4282812144
H        1.2637268935   -3.8710584642   -2.4539189410
H       -0.5335027842   -3.6943660117   -0.7530584314
H        5.6059929492    1.4351120358   -2.8361267483
H        6.7822371111    1.9176711395   -0.6742813704
H        3.1991943042   -2.3655444688   -2.3552088276
H       -0.3640995705   -2.0099665675    1.0351996937
H        3.6115844730   -0.0564791533   -2.7583786371
H        5.9566446665    0.9146839335    1.4063775890
H       -0.2156182229    0.7195225164    0.6578429392
H        0.6176702876    1.5891271631    1.9565386786
H       -0.3689360645    0.1517261444    2.3371120280
H        2.8951126089    0.3265086082    2.9074351245
H        2.9860710724   -1.3845428555    2.4383609396
H        1.6526370447   -0.8295746191    3.4592130296
29   

C        1.3641929359   -3.1954182344   -1.6151533084
C        0.3261938255   -3.0600918205   -0.6998193804
C        5.1287156202    1.1360097973   -1.8149923636
C        5.9125744671    1.2292858194   -0.6732062826
C        2.4617547908   -2.3379217117   -1.5440612174
C        0.3962934704   -2.0691189406    0.2811588556
C        4.0227782674    0.2952331920   -1.7604499500
C        5.5693172749    0.4880544133    0.4608969139
C        2.5493869017   -1.3370278212   -0.5557260853
C        1.4956787001   -1.1978159683    0.3785327543
C        3.7216987453   -0.4154451732   -0.5864324380
C        0.2632204659    0.5977926408    1.5701379488
C        2.3254983394   -0.4271249449    2.5694321357
N        4.5030828741   -0.3228282442    0.5039589801
N        1.4718342057   -0.2199657222    1.3880401488
H        1.3202983095   -3.9625349142   -2.3799489832
H       -0.5316334042   -3.7213086274   -0.7452819424
H        5.3666815939    1.6977640988   -2.7123433344
H        6.7859571065    1.8684901039   -0.6504594075
H        3.2643424612   -2.4505334554   -2.2644259367
H       -0.4137653961   -1.9805475570    0.9928275951
H        3.3730332169    0.1895182551   -2.6193574482
H        6.1924780537    0.5688439040    1.3437648649
H       -0.2718133311    0.7047237271    0.6211494963
H        0.5375473740    1.5986115194    1.9173938292
H       -0.4049735441    0.1335496466    2.3023341634
H        2.9558966292    0.4502344789    2.7407508259
H        2.9688000656   -1.3026110988    2.4360447200
H        1.7075266713   -0.6050039506    3.4548387684
29   

C        1.4039618291   -3.2642755582   -1.5760964887
C        0.3264963706   -3.0796403224   -0.7156739968
C        4.9992165163    1.2815312495   -1.6908811505
C        5.9146695990    1.1988236990   -0.6502449596
C        2.5073332935   -2.4157360795   -1.4898750701
C        0.3635830734   -2.0508558952    0.2284986082
C        3.8977449627    0.4349975933   -1.6372236543
C        5.6995923113    0.2863021309    0.3867600359
C        2.5583084555   -1.3783464323   -0.5403298445
C        1.4700021642   -1.1892996477    0.3425913224
C        3.7321844934   -0.4523649052   -0.5630165356
C        0.1926967268    0.5833174579    1.5378446374
C        2.3834242358   -0.2471885692    2.4406829630
N        4.6351801115   -0.5277637429    0.4298529536
N        1.4344398279   -0.1740773195    1.3172646106
H        1.3852530390   -4.0609998878   -2.3110485307
H       -0.5363543240   -3.7332379642   -0.7743239242
H        5.1356592292    1.9781898585   -2.5115449611
H        6.7927704223    1.8317265485   -0.6326149717
H        3.3407486848   -2.5574310498   -2.1690284651
H       -0.4772850470   -1.9315606144    0.8983676082
H        3.1480827543    0.4547432655   -2.4175629339
H        6.4244596125    0.2315438395    1.1904405810
H       -0.3670776730    0.6786893106    0.6019982539
H        0.4272442140    1.5916381219    1.8927135498
H       -0.4352521178    0.0794522345    2.2793810244
H        3.0370637756    0.6296576981    2.4457972236
H        2.9962884787   -1.1514423129    2.3746896451
H        1.8400647931   -0.2952496601    3.3893143872
29   

C        1.4309652684   -3.3494776916   -1.5145591657
C        0.3202466100   -3.1137592900   -0.7101068861
C        4.8668683130    1.4334949912   -1.4676818973
C        5.9028795973    1.1661446873   -0.5821367816
C        2.5372174951   -2.5052341834   -1.4251361216
C        0.3284614968   -2.0421827658    0.1867498959
C        3.7700533634    0.5798041569   -1.4389823260
C        5.8049734067    0.0742619441    0.2858596679
C        2.5532663036   -1.4205297239   -0.5308131465
C        1.4388224997   -1.1851560542    0.3065367206
C        3.7324648196   -0.4984879779   -0.5440002479
C        0.1293506867    0.5682514009    1.5127256173
C        2.4365208454   -0.0602527762    2.2845377510
N        4.7432194702   -0.7445978075    0.3071445598
N        1.3947135852   -0.1339502337    1.2457648785
H        1.4358048409   -4.1820117713   -2.2088936746
H       -0.5452160704   -3.7635009723   -0.7728598034
H        4.9092500350    2.2737307618   -2.1529924610
H        6.7847759225    1.7934765309   -0.5555125824
H        3.3981834557   -2.6833570088   -2.0599289567
H       -0.5377737772   -1.8927734807    0.8166717819
H        2.9274140622    0.7365842668   -2.0998802278
H        6.6216046201   -0.1207958566    0.9710050190
H       -0.4582956423    0.6567030316    0.5934423040
H        0.3315678186    1.5798882019    1.8781236571
H       -0.4559592293    0.0281891401    2.2635616493
H        3.0791010116    0.8096215473    2.1221688772
H        3.0478352814   -0.9676917189    2.2869321019
H        1.9752843300    0.0142441596    3.2740531822
29   

C        1.4812520949   -3.4271056319   -1.4971660658
C        0.3422096596   -3.1545380906   -0.7456834298
C        4.7923000123    1.5556401131   -1.1829021347
C        5.9258304659    1.1182126087   -0.5095725497
C        2.5857938709   -2.5812709929   -1.4043530742
C        0.3217873836   -2.0480460969    0.1077674998
C        3.6942679623    0.7033639385   -1.1991560276
C        5.9184359970   -0.1322512816    0.1165780019
C        2.5690204850   -1.4542970481   -0.5644046727
C        1.4305544742   -1.1887652107    0.2332051341
C        3.7544909867   -0.5434834537   -0.5614832982
C        0.0903206103    0.5489693860    1.4393260790
C        2.4607431130    0.0688823708    2.1241978984
N        4.8546742695   -0.9487047579    0.0968684957
N        1.3722041296   -0.1126551838    1.1467091220
H        1.5101304788   -4.2900076129   -2.1527318324
H       -0.5219981350   -3.8055453736   -0.8124128424
H        4.7618324456    2.5227191800   -1.6740917502
H        6.8141534436    1.7351651091   -0.4617054417
H        3.4710715632   -2.7889613378   -1.9953727101
H       -0.5656083443   -1.8785064435    0.7018178528
H        2.7755606409    0.9882555445   -1.6956140807
H        6.8095045233   -0.4571266290    0.6408256335
H       -0.5154892434    0.6240409169    0.5306895025
H        0.2666179746    1.5648960728    1.8063214523
H       -0.4640888546   -0.0119660400    2.1982698477
H        3.0448266975    0.9624639962    1.8865275661
H        3.1222259250   -0.8024640605    2.1378855422
H        2.0464496722    0.1685998779    3.1321350720
29   

C        1.5072460801   -3.4754029951   -1.4355062490
C        0.3465820604   -3.1716469601   -0.7316041554
C        4.7624618072    1.6086906934   -0.9503005180
C        5.9623647322    1.0600953787   -0.5159430108
C        2.6103103281   -2.6280801068   -1.3425161854
C        0.3043814828   -2.0345085258    0.0790739415
C        3.6503845714    0.7749936583   -0.9633970252
C        6.0051504179   -0.2786146341   -0.1137101780
C        2.5725415070   -1.4650597727   -0.5519680131
C        1.4116272999   -1.1728724273    0.2061564846
C        3.7603927920   -0.5630052642   -0.5562964852
C        0.0469806423    0.5747548328    1.3740189625
C        2.4195144102    0.1379832178    2.0773596358
N        4.9277628051   -1.0771936326   -0.1290380705
N        1.3371425625   -0.0787038760    1.0987540700
H        1.5546463068   -4.3635994836   -2.0552166387
H       -0.5167760469   -3.8236568340   -0.7994692906
H        4.6928442913    2.6448407456   -1.2648767568
H        6.8647705844    1.6573127342   -0.4835974385
H        3.5119774660   -2.8613247033   -1.8985312631
H       -0.5992370230   -1.8458690264    0.6419529064
H        2.6823665957    1.1426635699   -1.2794875306
H        6.9486036803   -0.6902762670    0.2251509396
H       -0.5544682354    0.6304630751    0.4610994126
H        0.2109491944    1.5976723633    1.7270132368
H       -0.5060874095    0.0197083504    2.1383047622
H        2.9407634593    1.0769242669    1.8700825838
H        3.1411145004   -0.6842735941    2.0556201065
H        2.0060523419    0.1736735236    3.0899749917
29   

C        1.5888516239   -3.5243918254   -1.3927984133
C        0.3970825458   -3.2066379514   -0.7526322991
C        4.7872719161    1.6269806903   -0.7861014951
C        6.0203853882    1.0231803112   -0.5781511340
C        2.6832741052   -2.6695528361   -1.2746198957
C        0.3163171337   -2.0486411366    0.0228445529
C        3.6652622969    0.8069716844   -0.7623589381
C        6.0861936398   -0.3559651097   -0.3584639387
C        2.6133393498   -1.4811213530   -0.5192632552
C        1.4142511182   -1.1789612701    0.1763363394
C        3.7949077585   -0.5726548544   -0.5330450299
C       -0.0048871353    0.5728188067    1.2729743307
C        2.3312565362    0.1372269250    2.0880127390
N        4.9995270539   -1.1416617424   -0.3372071845
N        1.2978747075   -0.0784532988    1.0571315416
H        1.6673433116   -4.4282992064   -1.9860696391
H       -0.4603902475   -3.8638640097   -0.8415256857
H        4.7004829729    2.6940948468   -0.9624944947
H        6.9317555372    1.6074573004   -0.5865768107
H        3.6036349805   -2.9174209222   -1.7926618659
H       -0.6117684387   -1.8514213571    0.5411265031
H        2.6764199901    1.2187273700   -0.9202966712
H        7.0564379802   -0.8118519718   -0.1997157520
H       -0.5701511706    0.6148689465    0.3365075637
H        0.1410035752    1.6004569106    1.6200683211
H       -0.5856776959    0.0244118720    2.0213848822
H        2.8098838202    1.1112625959    1.9515145311
H        3.0976488139   -0.6429453261    2.0503957589
H        1.8788901260    0.0972874603    3.0837464606
29   

C        1.6298255598   -3.5472800947   -1.3071591361
C        0.4174632029   -3.2092297169   -0.7233937472
C        4.8332638255    1.6366266127   -0.6564600956
C        6.0670054361    1.0015560741   -0.6803200739
C        2.7221847950   -2.6928292602   -1.1728786957
C        0.3149709614   -2.0310645948    0.0147142258
C        3.7030427483    0.8320038384   -0.5703258998
C        6.1253966574   -0.3932090416   -0.6260031928
C        2.6407901632   -1.4782233734   -0.4509408423
C        1.4099696900   -1.1605062222    0.1859902477
C        3.8225811650   -0.5678858160   -0.4941455884
C       -0.0449975223    0.6099493517    1.2047930289
C        2.2379048262    0.1412469123    2.1437566364
N        5.0313623952   -1.1640240481   -0.5426286053
N        1.2600257580   -0.0562192012    1.0567090707
H        1.7265669196   -4.4660594127   -1.8743407407
H       -0.4390395614   -3.8656345515   -0.8265328709
H        4.7510427672    2.7171506377   -0.7118522591
H        6.9837357157    1.5733065199   -0.7491406449
H        3.6478819073   -2.9686145222   -1.6664348514
H       -0.6304782192   -1.8192866676    0.4943686603
H        2.7186975520    1.2812452828   -0.5765111451
H        7.0957261716   -0.8749215479   -0.6547061897
H       -0.5708527154    0.6372238886    0.2450836016
H        0.0953656594    1.6431405420    1.5372329517
H       -0.6613929751    0.0812024616    1.9387933998
H        2.6805121559    1.1397251020    2.0818071863
H        3.0395154770   -0.6021009699    2.0968091469
H        1.7444863156    0.0282438499    3.1140932724
29   

C        1.6739353844   -3.5814766781   -1.2154308042
C        0.4449272683   -3.2189526438   -0.6899608765
C        4.9048736741    1.6314224979   -0.5341877586
C        6.1078253372    0.9917777899   -0.7900618266
C        2.7662410266   -2.7290748410   -1.0712112140
C        0.3271881253   -2.0187358187    0.0048144956
C        3.7742362501    0.8355657851   -0.3883044513
C        6.1342123256   -0.3984757572   -0.9046639696
C        2.6785006656   -1.4835039619   -0.3918546848
C        1.4210212341   -1.1488034358    0.1879897535
C        3.8612798843   -0.5702685624   -0.4669861187
C       -0.0577084338    0.6535355258    1.1119532434
C        2.1410576389    0.1150885443    2.2050959079
N        5.0405885380   -1.1601828051   -0.7607882054
N        1.2385901064   -0.0429820037    1.0487959820
H        1.7848609648   -4.5180878747   -1.7499459011
H       -0.4120134439   -3.8731961585   -0.8027407231
H        4.8429639276    2.7125542607   -0.4658445925
H        7.0219828783    1.5576813048   -0.9168056162
H        3.6933315210   -3.0440217213   -1.5369960262
H       -0.6321101467   -1.7889657214    0.4473033210
H        2.8182302444    1.3171956310   -0.2447151735
H        7.0779016874   -0.8850437654   -1.1216951563
H       -0.5367983817    0.6595772385    0.1276741900
H        0.0886366530    1.6939064926    1.4182150783
H       -0.7200431404    0.1605840380    1.8307353372
H        2.5423206984    1.1323857772    2.2381850184
H        2.9786314272   -0.5871775835    2.1534270716
H        1.5969445396   -0.0856175586    3.1332375721
29   

C        1.7759619535   -3.6107623219   -1.0068551594
C        0.8435593614   -3.4940553578    0.0081143459
C        5.2567073791    1.4652705769   -0.0953268080
C        6.0568917598    1.1373291728   -1.1762932451
C        2.6686678634   -2.5695434570   -1.2501785073
C        0.7900191028   -2.3181157967    0.7475285759
C        4.1396353396    0.6720679761    0.1438488552
C        5.7265953351    0.0322361072   -1.9572725517
C        2.6706005399   -1.3604149045   -0.4942375382
C        1.6638153730   -1.2388202536    0.5075315017
C        3.8096242397   -0.4083300550   -0.7081950655
C        0.9819328282    1.1337898077    0.3878058091
C        0.9658893116   -0.0611520753    2.6018848790
N        4.6464128405   -0.7251895002   -1.7228922329
N        1.3816632440   -0.0378771173    1.1890074498
H        1.8237534376   -4.5149182903   -1.6030868551
H        0.1491032797   -4.3016974856    0.2094438664
H        5.5009937899    2.2995815049    0.5539748641
H        6.9415732854    1.7157964102   -1.4100526035
H        3.3941007133   -2.7467626697   -2.0358375246
H        0.0141328729   -2.2308347933    1.4956736461
H        3.5654740576    0.8959079559    1.0266424340
H        6.3702595439   -0.2285629996   -2.7891729935
H        1.3217081737    1.0358237248   -0.6479233363
H        1.4189698407    2.0458158026    0.8056429635
H       -0.1083771039    1.2286203525    0.3811617625
H        1.3142373741    0.8425680060    3.1111433701
H        1.4014148464   -0.9244414475    3.1151920432
H       -0.1248906836   -0.1162205637    2.6764422315
