32

C      0.34108    3.02303   -0.26388
C      2.04292    1.77297    0.87577
C      1.15478    4.15727   -0.26633
C      2.87161    2.89706    0.88332
C     -2.79560   -1.08406    5.21816
C     -2.77583   -0.44100    3.99875
C     -1.54920   -2.27371    3.94078
C      0.76329    1.81242    0.30360
C      2.42733    4.09551    0.31039
C      0.48792   -0.57133   -0.49470
C     -0.51621    0.18641    1.73911
C     -1.57978   -0.91610    1.80987
C     -0.14024    0.59031    0.29851
N     -2.02584   -2.22815    5.17188
N     -1.97673   -1.21774    3.17963
O      3.19451    5.23665    0.28506
H     -0.64662    3.08454   -0.71632
H      2.40984    0.85385    1.32619
H      0.82033    5.09121   -0.70844
H      3.86125    2.84088    1.33476
H     -3.32239   -0.79146    6.11757
H     -3.24618    0.46597    3.64482
H     -0.90108   -3.04315    3.53854
H      1.37791   -0.96047    0.01237
H      0.79307   -0.23472   -1.48989
H     -0.21355   -1.40198   -0.62419
H      0.37568   -0.14809    2.28176
H     -0.88763    1.06956    2.26973
H     -1.21149   -1.84544    1.36898
H     -2.47083   -0.62201    1.24379
H     -1.06735    0.87847   -0.21429
H      4.04316    5.05737    0.71970
