32

C     -0.15191    2.47001   -0.03362
C      1.60911    1.57176    1.32706
C      0.46547    3.72517   -0.01571
C      2.23830    2.81511    1.35882
C     -4.63800    0.85388    1.13999
C     -3.73839    0.04565    1.80298
C     -3.02424    2.13292    1.74451
C      0.40240    1.37292    0.63500
C      1.66362    3.90022    0.68439
C      0.54382   -1.02952   -0.14939
C     -0.62736   -0.48968    2.02648
C     -1.46799    0.48490    2.85956
C     -0.28620    0.01881    0.61184
N     -4.18261    2.15646    1.10825
N     -2.70437    0.87868    2.19133
O      2.32081    5.10657    0.74836
H     -1.08913    2.35124   -0.57163
H      2.07350    0.74183    1.85506
H      0.00924    4.56230   -0.54231
H      3.17048    2.96341    1.89629
H     -5.58294    0.57268    0.69247
H     -3.74208   -1.01033    2.03391
H     -2.36958    2.97924    1.90858
H      1.50608   -1.20806    0.34313
H      0.75003   -0.69368   -1.17014
H      0.01097   -1.98574   -0.20369
H     -1.15603   -1.44633    1.93867
H      0.29261   -0.69798    2.58648
H     -0.90302    1.39999    3.05135
H     -1.71095    0.03745    3.82944
H     -1.23370    0.14434    0.07623
H      1.82391    5.76444    0.23670
