24

C      1.55307   -0.78170   -0.49840
C      0.44473   -0.32639    0.21639
C      2.50557   -1.60569    1.56113
C      2.58898   -1.42774    0.17740
C      0.35923   -0.50053    1.60083
C      1.40110   -1.15455    2.29046
C      0.31542   -2.37036    4.26138
C      1.39052   -1.39200    3.78489
C      3.81651   -1.87641   -0.57528
C     -0.88800   -0.02684    2.31420
O     -0.56495   -2.82773    3.57233
O      0.39533   -2.70565    5.57979
F      3.48043   -2.32366   -1.83193
F      4.44575   -2.90985    0.07993
F     -1.63869    0.78857    1.50486
F     -0.55692    0.72575    3.43200
H      1.60146   -0.64621   -1.57447
H     -0.36522    0.16955   -0.30641
H      3.31207   -2.11896    2.07639
H      1.23882   -0.45259    4.32658
H      2.36689   -1.78033    4.09426
H      4.55930   -1.08268   -0.70686
H     -1.52651   -0.84458    2.65135
H      1.14143   -2.24672    6.00251
