25   

C       -0.2394542476   -5.5681374164   -3.7790585477
C        0.0371698416   -4.7721853975   -2.5916559561
C       -0.4762089022   -4.7867473676   -4.8794522875
C       -0.0320743461   -1.0294296862   -1.8552106601
C        0.2404608229   -2.3720519471   -1.8595235012
C       -0.0001617853   -3.4173698093   -2.8393193816
C        0.4367672626   -0.5476013321   -0.5688651570
C       -2.2025691271   -0.3142745442   -2.9222601960
C        0.3307970154    0.8454420783   -0.0217312369
C       -0.6832567593   -0.1624552182   -2.9153015536
N        0.9374679455   -1.5381735893    0.1208474577
N        0.8188893528   -2.6537362351   -0.6506856914
O       -2.7561085271   -0.5384168300   -3.9863029812
O       -2.8670043477   -0.1639145994   -1.7486628395
S       -0.3707744533   -3.0698988982   -4.5109459257
H       -0.2590964993   -6.6526580002   -3.7915475106
H        0.2371220844   -5.2145181245   -1.6235391578
H       -0.7057015864   -5.1694994241   -5.8672813041
H       -0.5539614457    1.3487714598   -0.4195613338
H        0.2574786672    0.8139217498    1.0691786143
H        1.2215028181    1.4166055439   -0.2961436025
H       -0.2779034014   -0.3949025495   -3.9020403407
H       -0.4505384974    0.8884055642   -2.7297405301
H        1.1440010052   -3.5779749135   -0.3797189819
H       -3.8067503773   -0.3117036318   -1.9414170591
25   

C       -0.2555247916   -5.4380138551   -4.0003944855
C       -0.1126029449   -4.6790522494   -2.7661238345
C       -0.1104074773   -4.6471887960   -5.1106666851
C        0.0582133918   -1.0041052652   -1.9074920807
C        0.3398292724   -2.3406023283   -1.9612229066
C        0.1325320198   -3.3438956784   -2.9927386050
C        0.4917199400   -0.5759477865   -0.5902257270
C       -2.1106295220   -0.2647425954   -2.9049894499
C        0.3750195843    0.7945904731    0.0089255221
C       -0.5933416971   -0.1148992566   -2.9450578894
N        0.9684914461   -1.5968541719    0.0732782133
N        0.8747282051   -2.6797696321   -0.7478975860
O       -2.6548034048   -0.9382228538   -3.7645141913
O       -2.7859372380    0.4097600320   -1.9409658942
S        0.2027502305   -2.9659761450   -4.6950898536
H       -0.4583644156   -6.5029336239   -4.0377892524
H       -0.2070204587   -5.1233331300   -1.7824823954
H       -0.1834442686   -5.0033143646   -6.1317547883
H       -0.4737895783    1.3331051442   -0.4195748729
H        0.2349158682    0.7183531365    1.0910148977
H        1.2907062081    1.3590335195   -0.1853663925
H       -0.2231668647   -0.3445453686   -3.9457149487
H       -0.3418339201    0.9308587804   -2.7527647528
H        1.1987816916   -3.6150722463   -0.5141163924
H       -3.7244245651    0.1892810264   -2.0566514147
25   

C       -0.3044381077   -5.3574895773   -4.0030346924
C       -0.2513703368   -4.5822795186   -2.7714652761
C        0.1189662871   -4.6320533572   -5.0876485241
C        0.0848225765   -0.9704016742   -1.8991121352
C        0.3992661791   -2.2969924972   -1.9443949881
C        0.2026457551   -3.3020727775   -2.9789424208
C        0.5154405233   -0.5232346017   -0.5869987826
C       -2.1300354778   -0.2407960782   -2.7812420517
C        0.4159803673    0.8578826672   -0.0094881265
C       -0.6179389873   -0.1331398829   -2.9454595782
N        1.0377500177   -1.5254091537    0.0726071508
N        0.9749828727   -2.6141193461   -0.7450194134
O       -2.7477000582   -0.9814676212   -3.5286024925
O       -2.7200069664    0.5372979127   -1.8396090766
S        0.5926513949   -2.9929134980   -4.6525641157
H       -0.6440417115   -6.3862352189   -4.0573423234
H       -0.5503451590   -4.9692223352   -1.8041725552
H        0.1562446527   -5.0120370526   -6.1020630623
H       -0.4937712491    0.9355528969    0.5919522844
H        1.2767243851    1.0551262618    0.6357567468
H        0.3823577634    1.6120407659   -0.7984773272
H       -0.3356115770   -0.4486217575   -3.9515733462
H       -0.3285500102    0.9155520840   -2.8494246237
H        1.3346421770   -3.5381378319   -0.5166785394
H       -3.6682130460    0.3297545806   -1.8664794369
25   

C       -0.3666271709   -5.3332134159   -4.0360281759
C       -0.3988748027   -4.5441299605   -2.8122416885
C        0.3017807790   -4.6905659111   -5.0482227459
C        0.0442351219   -1.0231702292   -1.8738628156
C        0.4144036417   -2.3321734013   -1.9144152642
C        0.2384271745   -3.3374744119   -2.9568747610
C        0.4981174799   -0.5410580463   -0.5831581503
C       -2.2094500284   -0.3009717126   -2.6522749536
C        0.3599003285    0.8444066925   -0.0254379707
C       -0.7104557158   -0.2429241401   -2.9260147720
N        1.0866597282   -1.5119776582    0.0688421470
N        1.0454399433   -2.6131347011   -0.7350036433
O       -2.8800777706   -1.1284535760   -3.2475362064
O       -2.7308512272    0.6079427816   -1.7910994306
S        0.9110374363   -3.1131745276   -4.5547314065
H       -0.8225744349   -6.3122907217   -4.1366461936
H       -0.8805360609   -4.8651267526   -1.8955818546
H        0.4398483545   -5.0960541301   -6.0438962473
H       -0.5009391565    0.8816666923    0.6474239057
H        1.2562078133    1.1081261476    0.5429862018
H        0.2146788285    1.5752146133   -0.8239240222
H       -0.5081861018   -0.6448825994   -3.9216247390
H       -0.3882331626    0.8010015670   -2.9264549101
H        1.4479185621   -3.5204063636   -0.5098521793
H       -3.6804695182    0.4141570122   -1.7298287320
25   

C       -1.1496602746   -5.0914346028   -4.3680675336
C       -1.3354992697   -4.2762715174   -3.1753014253
C        0.0960862045   -4.9239194933   -4.9210640337
C       -0.0759885953   -1.2525069460   -1.7352220783
C       -0.0727358126   -2.6112370407   -1.7546113880
C       -0.2230728286   -3.5303678158   -2.8823393920
C        0.1252609130   -0.8923095213   -0.3453425629
C       -1.7335300493    0.0929158541   -3.0152872861
C        0.2243158365    0.4883608092    0.2315478948
C       -0.2705112004   -0.3242645425   -2.9108818602
N        0.2315339569   -1.9773493922    0.3801405599
N        0.1138398266   -3.0380588155   -0.4703214631
O       -2.4886322420   -0.5885487101   -3.6895742910
O       -2.1137878619    1.2300004875   -2.3815459091
S        1.0835100374   -3.7768030735   -4.0191036225
H       -1.9108126295   -5.7485021322   -4.7748781124
H       -2.2496833838   -4.2455175644   -2.5929923723
H        0.4410089600   -5.4311327995   -5.8147148549
H       -0.7387968979    0.7730120662    0.6633217070
H        0.9787230386    0.5077481892    1.0230798278
H        0.4939559799    1.2146018621   -0.5384856655
H        0.0325386119   -0.8167487088   -3.8388570140
H        0.3509370075    0.5671116441   -2.7950445351
H        0.1706952306   -4.0181420510   -0.2013911211
H       -3.0662668413    1.3287455346   -2.5434406585
25   

C       -1.1351710705   -4.8979235960   -4.4607101030
C       -1.3161877488   -4.0350757684   -3.3013388513
C        0.1875237935   -5.0333845099   -4.8047376675
C       -0.0451086289   -1.2805773890   -1.7030234126
C        0.0409160556   -2.6362598419   -1.6980115104
C       -0.1225733426   -3.5723850782   -2.8116490179
C        0.1574018029   -0.8807025705   -0.3249483638
C       -1.8032917968   -0.0160059027   -2.9336713355
C        0.1901102544    0.5165398037    0.2182837513
C       -0.3256904746   -0.3923136166   -2.8916652136
N        0.3297991797   -1.9430874425    0.4207646941
N        0.2551344671   -3.0261930215   -0.4066000802
O       -2.6021106332   -0.8308227891   -3.3677399960
O       -2.1532262964    1.2217709439   -2.5046177413
S        1.2566299066   -4.1259307267   -3.7376274757
H       -1.9535407811   -5.3686158910   -4.9948262544
H       -2.2801947684   -3.7605041550   -2.8860846002
H        0.5435112956   -5.6254901421   -5.6399090947
H       -0.7818145250    0.7612522408    0.6547059188
H        0.9508417245    0.5940695172    1.0001380579
H        0.4135873841    1.2365234181   -0.5722935328
H       -0.0584161666   -0.9047453611   -3.8200160169
H        0.2789903726    0.5162719639   -2.8328914766
H        0.3472460928   -3.9974963759   -0.1162345606
H       -3.1193885745    1.2781772882   -2.5862832094
25   

C       -1.1343822474   -4.8317050459   -4.5417045476
C       -1.2992312853   -3.8926095398   -3.4408313128
C        0.1730962217   -5.2194091196   -4.7014495703
C       -0.0618986152   -1.3166614929   -1.7337476154
C        0.0752670196   -2.6694887443   -1.7163071596
C       -0.1133948575   -3.6243547523   -2.8065492069
C        0.1766908338   -0.8916983616   -0.3687324521
C       -1.8781304007   -0.0460309507   -2.8885902786
C        0.1822193452    0.5130818637    0.1558055714
C       -0.4058074060   -0.4448049465   -2.9192280596
N        0.4138760100   -1.9368249064    0.3830360068
N        0.3474586871   -3.0328222863   -0.4275135627
O       -2.7070215585   -0.8403961220   -3.3033013549
O       -2.1901817272    1.1909314183   -2.4295712502
S        1.2461820053   -4.4653622591   -3.5249730045
H       -1.9515073146   -5.1751412494   -5.1669871194
H       -2.2441058098   -3.4370704188   -3.1634266643
H        0.5167298160   -5.9079006965   -5.4648356683
H       -0.7840299811    0.7344172615    0.6166282856
H        0.9620641093    0.6242320173    0.9144158830
H        0.3611537222    1.2285909707   -0.6500815810
H       -0.1958034665   -0.9743972382   -3.8526795235
H        0.2123390104    0.4566406321   -2.9104866324
H        0.4774553553   -3.9966712947   -0.1269055943
H       -3.1577921783    1.2644002218   -2.4723582079
25   

C       -1.1225772574   -4.7940505164   -4.6099132408
C       -1.2790701843   -3.7806875934   -3.5758501997
C        0.1244652348   -5.3670655636   -4.5902208064
C       -0.1239103471   -1.3233177055   -1.7403978489
C        0.0481214302   -2.6742984023   -1.7347131845
C       -0.1481538487   -3.6357111447   -2.8124791643
C        0.1638477553   -0.8973718809   -0.3844280635
C       -1.9811384732   -0.0210040977   -2.8096161944
C        0.1629502930    0.5048555357    0.1473558110
C       -0.5172073951   -0.4417266913   -2.9046853473
N        0.4624543373   -1.9377783007    0.3511907672
N        0.3895953636   -3.0320217950   -0.4603460692
O       -2.8322391162   -0.7623915427   -3.2735683814
O       -2.2607597750    1.1830921242   -2.2532620368
S        1.1479569273   -4.7021112598   -3.3202999035
H       -1.9024467026   -5.0582143498   -5.3161057846
H       -2.1834805422   -3.2013822583   -3.4280404226
H        0.4523400523   -6.1396672598   -5.2761464216
H       -0.7907781089    0.7071563783    0.6417706555
H        0.9662667680    0.6263110138    0.8794518325
H        0.3020754945    1.2273829941   -0.6601167846
H       -0.3522037646   -0.9661831091   -3.8498955671
H        0.1108286409    0.4528061163   -2.9192724354
H        0.5592042875   -3.9926925676   -0.1694459314
H       -3.2273658490    1.2775055019   -2.2734479723
25   

C       -1.0723115678   -4.7318824730   -4.7064212179
C       -1.2054071189   -3.6606339016   -3.7292476492
C        0.0728013782   -5.4638435362   -4.5203988106
C       -0.1526570944   -1.3220138010   -1.7397712498
C        0.0384130219   -2.6726883389   -1.7614108733
C       -0.1577160718   -3.6249228291   -2.8423469620
C        0.1879410863   -0.9110740573   -0.3904790305
C       -2.0466319916   -0.0059063366   -2.7392048893
C        0.1942563155    0.4821607931    0.1651636696
C       -0.5814442963   -0.4134355671   -2.8718837066
N        0.5384237729   -1.9557012929    0.3146764514
N        0.4490549507   -3.0383987112   -0.5094492126
O       -2.8916062969   -0.6748862020   -3.3113514177
O       -2.3324619292    1.1175949831   -2.0369452975
S        1.0243376134   -4.8811960863   -3.1584293583
H       -1.7967474319   -4.9242134280   -5.4906010021
H       -2.0432580958   -2.9747999469   -3.7035834784
H        0.3670712464   -6.3052047345   -5.1372109765
H       -0.7458884758    0.6699138780    0.6903337447
H        1.0179802696    0.5968570735    0.8753726642
H        0.3054610395    1.2196378259   -0.6329454190
H       -0.4247457119   -0.9063489413   -3.8350850791
H        0.0361814043    0.4883268744   -2.8733845102
H        0.6531441598   -3.9989552960   -0.2412189839
H       -3.2986419900    1.2162440072   -2.0575086342
25   

C       -0.9745573220   -4.6716587893   -4.7682107205
C       -1.0817127917   -3.5435138995   -3.8542202307
C        0.0271187844   -5.5357287861   -4.4092336048
C       -0.1920525714   -1.2888785169   -1.7253308361
C        0.0185843682   -2.6392502899   -1.7586590364
C       -0.1543661962   -3.5911959605   -2.8407439155
C        0.1744101287   -0.8782507065   -0.3817116396
C       -2.1211246608   -0.0185836438   -2.7260666973
C        0.1684069031    0.5098870527    0.1877939285
C       -0.6382025555   -0.3639564833   -2.8387956072
N        0.5672364759   -1.9178104822    0.3069948401
N        0.4794530155   -2.9966102015   -0.5210043851
O       -2.9136168040   -0.6147092283   -3.4369930146
O       -2.4782196322    0.9815356928   -1.8838914522
S        0.8702058162   -5.0100136487   -2.9568834712
H       -1.6170727420   -4.8098299418   -5.6312596916
H       -1.8279159624   -2.7673802066   -3.9614014246
H        0.2777767636   -6.4403443280   -4.9512671531
H       -0.7646047391    0.6763947723    0.7324747084
H        1.0034020056    0.6314988231    0.8835654679
H        0.2520822163    1.2582780455   -0.6032058400
H       -0.4346925929   -0.8138722344   -3.8138171891
H       -0.0615633914    0.5634142056   -2.7991607914
H        0.7176500854   -3.9524426542   -0.2643199780
H       -3.4449864980    1.0570416483   -1.9405657381
25   

C       -0.8422331710   -4.6508873607   -4.8157280815
C       -0.8958444814   -3.4759254907   -3.9580940300
C       -0.0297229496   -5.6278039049   -4.3052027163
C       -0.1907412314   -1.2908839104   -1.7053932495
C        0.0450753445   -2.6406706168   -1.7512960624
C       -0.1159560001   -3.5971241929   -2.8306256015
C        0.2407862373   -0.8700548587   -0.3835184442
C       -2.1895978478   -0.1630334567   -2.7660443393
C        0.2087420644    0.5107773591    0.2034458563
C       -0.6734353596   -0.3495643386   -2.7912092382
N        0.6793049262   -1.9004867306    0.2885086733
N        0.5616383153   -2.9819931210   -0.5301132305
O       -2.8462952707   -0.6203107273   -3.6872131771
O       -2.7267387723    0.5572743099   -1.7513395017
S        0.6943266646   -5.1524908094   -2.7749291295
H       -1.3890692854   -4.7402917463   -5.7483531234
H       -1.5110921827   -2.6194267734   -4.1929937055
H        0.1502967876   -6.5849596676   -4.7810330506
H       -0.4998013074    1.1488729422   -0.3285639163
H       -0.0811874861    0.4597886475    1.2566490501
H        1.2046148026    0.9571845094    0.1405107533
H       -0.3538879790   -0.7068136212   -3.7732450018
H       -0.2078543460    0.6300534199   -2.6567328011
H        0.8274511823   -3.9325222426   -0.2810393569
H       -3.6868596158    0.5679858737   -1.8968463029
25   

C       -0.7379675933   -4.6495717386   -4.9994701904
C       -0.6672549009   -3.4507610500   -4.1768334930
C       -0.2095912286   -5.7429932300   -4.3684321823
C       -0.0999801419   -1.3715078295   -1.7886447559
C        0.1230669007   -2.7236446444   -1.8674474981
C       -0.0799948880   -3.6698881101   -2.9498637425
C        0.3598185188   -0.9790599277   -0.4680920209
C       -2.1454083750   -0.3540991854   -2.8607592591
C        0.3126399319    0.3860267737    0.1536624694
C       -0.6198771935   -0.3949403076   -2.8247204953
N        0.8179737058   -2.0215477250    0.1697587062
N        0.6795215568   -3.0844241560   -0.6690756187
O       -2.7125330241   -0.7371736320   -3.8711337698
O       -2.7934236581    0.1606749849   -1.7870454183
S        0.3894535653   -5.3516370482   -2.7632071763
H       -1.1673780895   -4.6708506160   -5.9954369451
H       -1.0634963526   -2.5061913280   -4.5186815025
H       -0.1644871819   -6.7366563454   -4.7991949420
H       -0.4966452361    0.9813938056   -0.2757787190
H        0.1530407808    0.2990109477    1.2321642665
H        1.2629851977    0.8988046467   -0.0167845951
H       -0.2192125735   -0.6357696824   -3.8116259336
H       -0.2608182210    0.6111191259   -2.5951589577
H        0.9538892603   -4.0390887406   -0.4465644685
H       -3.7431052354    0.0986852764   -1.9798292313
25   

C       -0.7955676189   -4.5213380973   -4.9197204604
C       -0.5091709498   -3.3103863718   -4.1644477571
C       -0.6848606467   -5.6495123192   -4.1515997097
C       -0.0479699650   -1.2428991869   -1.7475815402
C        0.1362986170   -2.5998858606   -1.8109688338
C       -0.1963372879   -3.5602435353   -2.8467708235
C        0.4673727355   -0.8443748767   -0.4501371683
C       -2.1500955899   -0.5678182552   -2.9891131298
C        0.4613548548    0.5284435532    0.1554460500
C       -0.6628524261   -0.3019476128   -2.7653338138
N        0.9190539560   -1.8905522192    0.1879873358
N        0.7181172877   -2.9630919081   -0.6264854747
O       -2.5488249569   -0.6499934618   -4.1398626399
O       -2.9564076941   -0.6853572364   -1.9052219322
S       -0.2327103272   -5.2787351269   -2.4934267885
H       -1.0671810506   -4.5250446252   -5.9699775507
H       -0.5408931252   -2.3301566014   -4.6195563192
H       -0.8561649263   -6.6564611972   -4.5144821305
H       -0.4351697411    1.0765657801   -0.1447735567
H        0.4804450812    0.4564778122    1.2468576617
H        1.3458107843    1.0795329131   -0.1748861801
H       -0.1210020603   -0.3749202323   -3.7109918868
H       -0.5571253584    0.7323102409   -2.4316769455
H        0.9632127947   -3.9235456198   -0.3951236964
H       -3.8465770250   -0.8808094926   -2.2392046479
25   

C       -0.7846914589   -4.4262071160   -4.9211178572
C       -0.3473616895   -3.2566310295   -4.1727969285
C       -0.9794374537   -5.5156816555   -4.1120385870
C       -0.0201801793   -1.2073627036   -1.7206964713
C        0.1613939949   -2.5610809937   -1.7944851607
C       -0.2312951121   -3.5034631077   -2.8252391934
C        0.5416692319   -0.8180559858   -0.4401670521
C       -2.1427961320   -0.7532462177   -3.0496925140
C        0.6210859963    0.5615537069    0.1438158579
C       -0.7268448244   -0.2931125355   -2.7039907468
N        1.0270486919   -1.8679098738    0.1693384107
N        0.8019533340   -2.9364345373   -0.6457055590
O       -2.4839676573   -0.7058199744   -4.2208123655
O       -2.9498209662   -1.1888536598   -2.0505850834
S       -0.6409137237   -5.1594570859   -2.4221238179
H       -0.9409420078   -4.4300968865   -5.9946031384
H       -0.1373757575   -2.3013922369   -4.6382007218
H       -1.3067918834   -6.4873935853   -4.4635749079
H       -0.2791773174    0.7607538941    0.7315403253
H        1.4910052775    0.6393280986    0.8023506044
H        0.7056067276    1.3124684983   -0.6451446615
H       -0.1329034388   -0.2155722731   -3.6181558836
H       -0.8062755285    0.7126350672   -2.2864199701
H        1.0612647075   -3.8979178435   -0.4350920103
H       -3.7786659169   -1.4745812971   -2.4666962297
25   

C       -0.7131898554   -4.4174355476   -4.9412008200
C       -0.1882717370   -3.2798390175   -4.1995794550
C       -1.1321748228   -5.4272834797   -4.1123042016
C       -0.0519759644   -1.1804794981   -1.7495017553
C        0.1718113997   -2.5252711840   -1.8187964623
C       -0.2252845715   -3.4783871825   -2.8413467857
C        0.5495129694   -0.7630833417   -0.4966528456
C       -2.1869767868   -0.8869870758   -3.1139539514
C        0.6012322868    0.6229473977    0.0744254172
C       -0.8247766071   -0.3123967841   -2.7248563927
N        1.1047826034   -1.7904248434    0.0935592135
N        0.8860729557   -2.8729405894   -0.7059712785
O       -2.5059848745   -0.8394159480   -4.2913361091
O       -2.9734631295   -1.4185779194   -2.1453547295
S       -0.9040541626   -5.0346939348   -2.4109173784
H       -0.7717274399   -4.4555339144   -6.0237318536
H        0.1794621098   -2.3738349123   -4.6673739373
H       -1.5595164546   -6.3621106537   -4.4564213096
H       -0.2561630577    0.7770403601    0.7352073111
H        1.5173160775    0.7523815162    0.6578888326
H        0.5777401719    1.3714272818   -0.7209937073
H       -0.2245041208   -0.1662397159   -3.6267096635
H       -0.9998556828    0.6722967236   -2.2862527027
H        1.1946084387   -3.8223029687   -0.5069568290
H       -3.7605388999   -1.7710793543   -2.5902631950
25   

C       -0.6553781199   -4.4244846958   -4.9194952015
C       -0.0500985856   -3.3393005446   -4.1603902754
C       -1.2934523859   -5.3304382680   -4.1094876639
C       -0.0851654489   -1.1885578840   -1.7047054581
C        0.1652545316   -2.5261101571   -1.7853742145
C       -0.2430742693   -3.4791156316   -2.8092347801
C        0.5648899653   -0.7592373707   -0.4808648858
C       -2.2339841942   -0.9823966707   -3.0677946514
C        0.6093485610    0.6273008451    0.0891739779
C       -0.9081783884   -0.3418116751   -2.6571582166
N        1.1787203085   -1.7729836748    0.0753113921
N        0.9510404605   -2.8592106317   -0.7174584571
O       -2.5338991638   -0.9569699630   -4.2508777097
O       -3.0145796278   -1.5395438684   -2.1089841295
S       -1.1802111809   -4.9024618420   -2.4046294485
H       -0.6142866251   -4.4996447400   -6.0008592844
H        0.4752410285   -2.5034980748   -4.6086140214
H       -1.8143753141   -6.2101548152   -4.4695381269
H       -0.2069493571    0.7534149404    0.8055228077
H        1.5573428586    0.7858806941    0.6112301064
H        0.5089745531    1.3747534488   -0.7012446619
H       -0.3163996603   -0.1401646269   -3.5541429030
H       -1.1386296173    0.6192348634   -2.1921334629
H        1.2981775640   -3.7998132934   -0.5416483710
H       -3.7746138737   -1.9324516297   -2.5668446939
25   

C        0.3447733602   -4.9054893883   -4.5164016674
C        0.7839158796   -3.9109127923   -3.5472811784
C       -0.9431416505   -5.3199935432   -4.2835836231
C       -0.0651984691   -1.2857775759   -1.6174283883
C       -0.0743647676   -2.6433029655   -1.5445381946
C       -0.1865183346   -3.6273783162   -2.6204938810
C        0.0865233723   -0.8327896245   -0.2483334880
C       -1.6643989081   -0.0317085180   -3.0600367798
C        0.1711981776    0.5830710604    0.2386330348
C       -0.2078728356   -0.4374978237   -2.8597993009
N        0.1604221716   -1.8664578402    0.5519808076
N        0.0607877156   -2.9818403793   -0.2278357444
O       -2.3550353923   -0.6922172372   -3.8185123704
O       -2.1049502959    1.0804306533   -2.4207789308
S       -1.6624047406   -4.5246226429   -2.8858655048
H        0.9612375878   -5.2699502813   -5.3310587090
H        1.7591734825   -3.4374117751   -3.5569891413
H       -1.4699912559   -6.0492909806   -4.8880690832
H       -0.8070648096    0.8989606854    0.6106840558
H        0.8927422693    0.6529626146    1.0574350050
H        0.4754902152    1.2555024758   -0.5664623048
H        0.1381774526   -0.9887008766   -3.7383631000
H        0.4052904811    0.4628718952   -2.7745357750
H        0.0760538379   -3.9415366736    0.1113842967
H       -3.0442432458    1.1738078224   -2.6494812565
25   

C        0.4226286005   -5.0569382354   -4.4138530705
C        0.8776301033   -4.0990863201   -3.4153909091
C       -0.9374604046   -5.2395937961   -4.3719159451
C       -0.0961126008   -1.2652180187   -1.6427976068
C       -0.0346463348   -2.6213253610   -1.5858038933
C       -0.1577080707   -3.6046496031   -2.6641894282
C        0.0887819567   -0.8197982118   -0.2754141181
C       -1.7898164996   -0.0315031181   -2.9977243326
C        0.1312570179    0.5939663970    0.2226951037
C       -0.3189922839   -0.4150540462   -2.8717292217
N        0.2410034776   -1.8572824248    0.5092853315
N        0.1620425807   -2.9684091474   -0.2791674586
O       -2.5100269758   -0.7078278552   -3.7135568999
O       -2.2119391818    1.0801784370   -2.3454336114
S       -1.7084757157   -4.2621263553   -3.1254285048
H        1.0810877469   -5.5627551040   -5.1118192752
H        1.9115671727   -3.8017261395   -3.2808206954
H       -1.4869137005   -5.9035608002   -5.0292739564
H       -0.8451727186    0.8649677934    0.6329180183
H        0.8787769704    0.6875624934    1.0154105774
H        0.3772974306    1.2851225265   -0.5865420083
H       -0.0083530870   -0.9583513177   -3.7686340942
H        0.2837739614    0.4945713833   -2.8136899410
H        0.2253348532   -3.9300751069    0.0486606286
H       -3.1625642000    1.1600166683   -2.5277071653
25   

C        0.4695757599   -5.1489301301   -4.3321026532
C        0.9379915241   -4.2419763161   -3.2931323917
C       -0.8892584063   -5.0711617294   -4.5110066709
C       -0.0613181866   -1.1993717508   -1.6508968036
C        0.0518342948   -2.5536687109   -1.6459483201
C       -0.0855882678   -3.5146572122   -2.7404103529
C        0.1522350850   -0.7975989457   -0.2740813832
C       -1.8047703878    0.1400995525   -2.8445486668
C        0.1730414709    0.5989346035    0.2715802671
C       -0.3463746327   -0.3079349357   -2.8373821874
N        0.3598179424   -1.8566619014    0.4680338750
N        0.2913629935   -2.9412066502   -0.3573677540
O       -2.6261663243   -0.5546458562   -3.4197503623
O       -2.1072618871    1.3216578440   -2.2518270641
S       -1.6426438955   -3.8998472989   -3.4323913240
H        1.1187285088   -5.8082000529   -4.8983205793
H        1.9743067892   -4.1482943312   -2.9884062609
H       -1.4471141283   -5.6564949674   -5.2328717302
H       -0.7947015440    0.8275162233    0.7257712691
H        0.9464736016    0.6873342788    1.0396821796
H        0.3704170365    1.3236195911   -0.5217112071
H       -0.1280557732   -0.8376227878   -3.7689297185
H        0.2989718987    0.5735619363   -2.8038287472
H        0.3811765625   -3.9118507874   -0.0642899924
H       -3.0669047998    1.4372705886   -2.3478143319
25   

C        0.4826297104   -5.3084153355   -4.2436084516
C        0.9177361181   -4.4135037852   -3.1801206782
C       -0.8154493906   -5.0701244609   -4.6198518383
C       -0.1436386961   -1.2049341635   -1.7325191647
C        0.0481074229   -2.5516228068   -1.7314263656
C       -0.0657976036   -3.5310813951   -2.8070151948
C        0.1038521317   -0.7878724086   -0.3656102951
C       -1.9782995706    0.0967536285   -2.8384632285
C        0.0757557275    0.6098620114    0.1768723033
C       -0.5127603292   -0.3236120229   -2.9041489781
N        0.4021984015   -1.8306970639    0.3681815318
N        0.3619426056   -2.9196159270   -0.4526763577
O       -2.8173333377   -0.6276825007   -3.3475460943
O       -2.2703644753    1.2877083909   -2.2597816640
S       -1.5489598600   -3.7569852149   -3.7037401660
H        1.1108206710   -6.0741203872   -4.6860460942
H        1.9055950415   -4.4382885816   -2.7341150684
H       -1.3407399097   -5.6191274564   -5.3928902386
H       -0.8913093000    0.7983985895    0.6503574963
H        0.8606692325    0.7341068627    0.9282251551
H        0.2258104325    1.3397383030   -0.6220456921
H       -0.3303467333   -0.8491821985   -3.8455028609
H        0.1153323278    0.5709758193   -2.9057367247
H        0.5116669437   -3.8827989291   -0.1599998834
H       -3.2358912236    1.3835326073   -2.3059645137
25   

C        0.4289959294   -5.3835418662   -4.1580137729
C        0.8319369279   -4.5309443890   -3.0482790949
C       -0.7595065811   -4.9813987344   -4.7124255401
C       -0.1695538415   -1.1865964498   -1.7345985036
C        0.0471562907   -2.5318163785   -1.7475490235
C       -0.0642518194   -3.5151654338   -2.8149111295
C        0.1262528598   -0.7696866848   -0.3766756768
C       -2.0532921361    0.1034438988   -2.7759923558
C        0.0955239796    0.6245175006    0.1755290453
C       -0.5823435529   -0.2899308933   -2.8809021892
N        0.4781597191   -1.8076754474    0.3389812400
N        0.4271625913   -2.8934135373   -0.4843544963
O       -2.8904911753   -0.6200536282   -3.2892563725
O       -2.3530493551    1.2734375547   -2.1598053588
S       -1.4246197594   -3.5612485323   -3.9121438484
H        1.0016390801   -6.2365736953   -4.5060282067
H        1.7416942701   -4.6783018129   -2.4777236036
H       -1.2438936795   -5.4721109980   -5.5487784386
H       -0.8577535025    0.7956089950    0.6823540911
H        0.9034263589    0.7563373292    0.9008087585
H        0.2079135683    1.3620689601   -0.6224158624
H       -0.4065282249   -0.7882677807   -3.8376707069
H        0.0281435968    0.6166858764   -2.8774917501
H        0.6075951949   -3.8533741448   -0.1993935618
H       -3.3206605201    1.3547102300   -2.1856782781
25   

C        0.3499867047   -5.5242429729   -4.0281322923
C        0.7156300157   -4.7020681279   -2.8833153802
C       -0.6915301364   -4.9853380410   -4.7381248646
C       -0.1709560923   -1.2278034564   -1.7090057685
C        0.0586208840   -2.5741769656   -1.7235764376
C       -0.0622613307   -3.5717850708   -2.7735952807
C        0.1842476509   -0.7975560150   -0.3684258399
C       -2.1184999974   -0.0141095823   -2.7294785656
C        0.1622644112    0.5973243727    0.1839635127
C       -0.6276453985   -0.3233464785   -2.8341772132
N        0.5869660221   -1.8244130854    0.3348427384
N        0.5128497887   -2.9150700743   -0.4784448804
O       -2.8989669018   -0.6568443699   -3.4118715766
O       -2.4966881659    1.0093043076   -1.9242447334
S       -1.2585428709   -3.4707282767   -4.0443674109
H        0.8447476531   -6.4533074281   -4.2903570844
H        1.5234341877   -4.9541374007   -2.2065938615
H       -1.1244968862   -5.4299255359   -5.6268316544
H       -0.7720489322    0.7595398643    0.7276705882
H        0.9966048986    0.7374131025    0.8770733182
H        0.2362416613    1.3368638003   -0.6162696163
H       -0.4109469960   -0.7762415629   -3.8044644511
H       -0.0727456944    0.6172872369   -2.8000552002
H        0.7255568357   -3.8681220599   -0.1939178199
H       -3.4651593461    1.0568511953   -1.9799314152
25   

C        0.2483370482   -5.5580699868   -3.9438294397
C        0.5597996296   -4.7613142603   -2.7656147806
C       -0.5826573797   -4.8959809570   -4.8088590213
C       -0.1655702529   -1.1641785101   -1.7355225976
C        0.0805820470   -2.5119024531   -1.7486288515
C       -0.0484109165   -3.5247645405   -2.7823181867
C        0.2565598995   -0.7126326108   -0.4206926124
C       -2.1823136255   -0.0900730651   -2.8010807089
C        0.2196119286    0.6811456631    0.1344917801
C       -0.6641903091   -0.2516739428   -2.8384337622
N        0.6918597376   -1.7269031960    0.2787660316
N        0.5803054097   -2.8282187828   -0.5133892106
O       -2.8507642973   -0.6446098101   -3.6575470464
O       -2.7094583059    0.7228155982   -1.8522771993
S       -1.0115589043   -3.2936300283   -4.2235161091
H        0.6313465656   -6.5577760486   -4.1187603567
H        1.2142558553   -5.1135146319   -1.9778608577
H       -0.9409518861   -5.3005997460   -5.7484438512
H       -0.4890081229    1.3051805622   -0.4138239275
H       -0.0727721674    0.6537294646    1.1878843254
H        1.2145423624    1.1284966428    0.0636495887
H       -0.3516752296   -0.6230415799   -3.8168746810
H       -0.2111720508    0.7367049231   -2.7279364891
H        0.8162823310   -3.7734648850   -0.2229346254
H       -3.6720843005    0.7036472124   -1.9782101240
25   

C       -0.0648612757   -5.5860442702   -3.8258174537
C        0.2704506296   -4.7888433475   -2.6543592985
C       -0.6406840078   -4.8328146583   -4.8148301592
C       -0.1093277026   -1.0691089005   -1.8209780447
C        0.1480848970   -2.4163602019   -1.8128005747
C       -0.0644025025   -3.4598964839   -2.8006841530
C        0.3577095599   -0.5803295394   -0.5365142689
C       -2.2259558673   -0.2022178514   -2.9028539804
C        0.2743363238    0.8205817022   -0.0054736905
C       -0.6986640019   -0.1858311930   -2.9045402193
N        0.8473959291   -1.5685533771    0.1632241265
N        0.7210570988   -2.6890629221   -0.5991937953
O       -2.8016595217   -0.3416790857   -3.9696034888
O       -2.8701064440   -0.0368767843   -1.7201173173
S       -0.7934678379   -3.1411661547   -4.3581899463
H        0.1194975502   -6.6519432025   -3.9072173687
H        0.7346318706   -5.2142253355   -1.7734963241
H       -0.9688620811   -5.2219426996   -5.7718525756
H       -0.5742726421    1.3505962147   -0.4449382865
H        0.1537456241    0.8009598993    1.0814274931
H        1.1952839811    1.3587925895   -0.2445720272
H       -0.3208576352   -0.4825924281   -3.8851661284
H       -0.3738949271    0.8463313983   -2.7551827171
H        1.0139780716   -3.6171752814   -0.3065508162
H       -3.8199846628   -0.0928821442   -1.9117346289
