25   

C        0.0068802994   -0.0810818673    1.3459009190
C        1.6315915788   -0.6648274863    2.9781618795
C       -0.8535720041   -1.0031494621    1.9414224927
C        1.2903646388    0.0991544980    1.8649608425
C        0.7114608364   -1.5718245427    3.5098646980
C        2.3068155728    1.0640187604    1.3402247223
C        2.8336459639    4.1089757597    0.8928315603
C        2.3050044303   -2.4958918210    5.2195318323
C        2.6594766729    2.9351757469   -0.0658273381
N       -0.5059796930   -1.7384551495    3.0068045558
N        0.9822359811   -2.3719278792    4.5945044705
O        3.4815459159    1.0179538563    1.6971550347
O        1.7633965729    1.9602501259    0.4871598488
H       -0.3312174268    0.4860002302    0.4874229527
H        2.6076864397   -0.5615602973    3.4313666919
H       -1.8459646218   -1.1317046550    1.5250637381
H        1.8632492358    4.5666934906    1.1069458232
H        3.2856278801    3.7729916399    1.8309996244
H        3.4869402973    4.8621234552    0.4427674688
H        3.0576324532   -2.7700251860    4.4726688634
H        2.2829547747   -3.2792422327    5.9837904762
H        2.5914539471   -1.5549727136    5.7006516464
H        3.6356504733    2.4913430740   -0.2915583360
H        2.2423412921    3.3015893114   -1.0090684899
H        0.2079575161   -2.9812742836    4.8332253911
25   

C       -0.0024658102   -0.1855624435    1.2506520227
C        1.6132868913   -0.6612449422    2.9260970329
C       -0.8582974718   -1.0839518317    1.8878657918
C        1.2749854004    0.0322566773    1.7672048216
C        0.6986060020   -1.5484912529    3.4987577091
C        2.2751099011    0.9929847864    1.2060392413
C        2.9399153535    4.0421274361    1.0446187335
C        2.2868281006   -2.3591708392    5.2692586847
C        2.5523383689    3.0061494467   -0.0058420114
N       -0.5119844775   -1.7569809231    2.9943521900
N        0.9676015097   -2.2826221529    4.6294308738
O        3.4802312069    0.8495040124    1.3947143406
O        1.6782889778    2.0174135929    0.5575825281
H       -0.3372309932    0.3365515488    0.3628706913
H        2.5846056853   -0.5170503753    3.3784086062
H       -1.8460848535   -1.2447339496    1.4717606567
H        2.0430504274    4.5190938515    1.4509954950
H        3.4953667610    3.5702026225    1.8607344590
H        3.5734862427    4.8104844907    0.5920578631
H        3.0481919063   -2.6626604037    4.5428806737
H        2.2675928876   -3.1024401085    6.0726286964
H        2.5590272082   -1.3915322455    5.7033340005
H        3.4543457591    2.5440476647   -0.4226655064
H        2.0328631246    3.5071432346   -0.8287203979
H        0.1986079109   -2.8882617213    4.8934231121
25   

C       -0.0021574222   -0.2886243983    1.1555713075
C        1.6014939278   -0.6426243889    2.8713682775
C       -0.8464501319   -1.1728793366    1.8272960908
C        1.2641710229   -0.0203196030    1.6729261234
C        0.6994938219   -1.5202530939    3.4779181382
C        2.2388730825    0.9462395074    1.0763455470
C        3.0669145008    3.9589602353    1.1817647006
C        2.2831567522   -2.2060963244    5.3040830584
C        2.4691805981    3.0817327801    0.0863136696
N       -0.4994290710   -1.7818366325    2.9702525421
N        0.9696524444   -2.1883038364    4.6485063288
O        3.4468735877    0.7278404049    1.0820502977
O        1.6224066748    2.0714178149    0.6528364361
H       -0.3360476270    0.1858789665    0.2412526345
H        2.5641438616   -0.4500674698    3.3239281080
H       -1.8257676536   -1.3751242599    1.4092655064
H        2.2688941065    4.4218879879    1.7698590610
H        3.7012955040    3.3634983202    1.8452635427
H        3.6775525622    4.7480525823    0.7333699532
H        3.0586913259   -2.5265617945    4.6003431651
H        2.2710104031   -2.9113187644    6.1411921462
H        2.5298113430   -1.2135219510    5.6949406187
H        3.2718566905    2.6343155241   -0.5107221186
H        1.8715170441    3.7052997116   -0.5859654605
H        0.2112010027   -2.7980134686    4.9329655941
25   

C       -0.0108765726   -0.4012211236    1.0665662680
C        1.5751150576   -0.6201675352    2.8195098734
C       -0.8342051862   -1.2852233937    1.7643778965
C        1.2360438471   -0.0650175702    1.5894988981
C        0.6954027344   -1.5024031078    3.4516321445
C        2.1794534535    0.9113924770    0.9554244961
C        3.2269091068    3.8390058175    1.2785001779
C        2.2733126842   -2.0506827129    5.3287293749
C        2.4096025914    3.1389521359    0.1974170834
N       -0.4847646631   -1.8299565813    2.9385771544
N        0.9702888561   -2.1075722155    4.6548508255
O        3.3555588219    0.6294488669    0.7488126852
O        1.5883533516    2.1112718599    0.7700226404
H       -0.3455951769    0.0202953264    0.1270936446
H        2.5231796307   -0.3721135069    3.2752120027
H       -1.7984976965   -1.5414219879    1.3410376409
H        2.5618647612    4.2652767190    2.0354719108
H        3.9103514224    3.1325185571    1.7591343696
H        3.8172716144    4.6453121379    0.8335865519
H        3.0707693214   -2.3701771241    4.6494774692
H        2.2739132112   -2.7219657398    6.1933861520
H        2.4775437386   -1.0348581842    5.6825475789
H        3.0789783323    2.7286253632   -0.5671040995
H        1.7631466823    3.8724660752   -0.2945862402
H        0.2299923155   -2.7324867027    4.9539137972
25   

C       -0.0356938204   -0.5032010432    0.9955174098
C        1.5073228748   -0.5633423129    2.7973350023
C       -0.8241106408   -1.4123554840    1.7013168425
C        1.1693194218   -0.0679607045    1.5422480382
C        0.6649951630   -1.4768931717    3.4361058072
C        2.0741851249    0.9292091628    0.8797495816
C        3.3788902630    3.7274220941    1.3408463840
C        2.2236983713   -1.8757483736    5.3663334180
C        2.3405056871    3.2165352951    0.3469476517
N       -0.4778139386   -1.8933545188    2.9038162190
N        0.9426223703   -2.0258333562    4.6653640601
O        3.1685430997    0.6076392724    0.4290687995
O        1.5506166020    2.1719013569    0.9327287296
H       -0.3643226703   -0.1413055016    0.0295007884
H        2.4256171211   -0.2441969541    3.2687631596
H       -1.7565207979   -1.7442419814    1.2595221756
H        2.8849390645    4.0903912364    2.2470822301
H        4.0774148662    2.9289802401    1.6087993177
H        3.9460455771    4.5497560030    0.8950808226
H        3.0545072268   -2.1631924621    4.7132376331
H        2.2434428844   -2.5255032073    6.2470688526
H        2.3591465433   -0.8415430150    5.6992602715
H        2.8385914980    2.8697691195   -0.5655016741
H        1.6787585153    4.0412736946    0.0642388264
H        0.2336720757   -2.6863597272    4.9640316779
25   

C       -0.0350449865   -0.6214214713    0.9241987118
C        1.4465039748   -0.5115178132    2.7729245118
C       -0.7698952758   -1.5754854619    1.6283452603
C        1.1049630317   -0.0657313930    1.5003941698
C        0.6611542595   -1.4765358088    3.4088659326
C        1.9627876354    0.9576757738    0.8134414703
C        3.5371200558    3.5983221264    1.3240241877
C        2.1919555677   -1.7150846441    5.3875784250
C        2.2984088651    3.2756364147    0.4941288517
N       -0.4269578086   -1.9963439497    2.8539831737
N        0.9459303558   -1.9770110260    4.6570299058
O        2.9035927532    0.6344003465    0.0965405249
O        1.5505995361    2.2105863176    1.0979212205
H       -0.3526544416   -0.3205581260   -0.0661850377
H        2.3223345989   -0.1116955161    3.2627780789
H       -1.6539526125   -1.9970876448    1.1642113717
H        3.2462139060    3.8706000272    2.3429877203
H        4.2081022342    2.7347833947    1.3614493548
H        4.0761956881    4.4377804312    0.8753571779
H        3.0600257738   -1.9451462666    4.7607415922
H        2.2397520461   -2.3483474059    6.2791914047
H        2.2360799744   -0.6685986007    5.7064262509
H        2.5930452982    3.0201968481   -0.5299694201
H        1.6622880190    4.1646209272    0.4385935758
H        0.2837517385   -2.6871739438    4.9492756583
25   

C       -0.0277070450   -0.7187293722    0.8644961925
C        1.3754249784   -0.4491834931    2.7559473177
C       -0.6980841283   -1.7240514070    1.5612432024
C        1.0313365455   -0.0455824336    1.4697048514
C        0.6585230987   -1.4712848439    3.3836937594
C        1.8358574251    1.0114430516    0.7719612644
C        3.6636305242    3.4768746547    1.2804858353
C        2.1440299978   -1.5498631959    5.4095516611
C        2.2765734913    3.3321219130    0.6618514482
N       -0.3613864467   -2.0930080566    2.8050980495
N        0.9493016231   -1.9303832154    4.6462899993
O        2.5741002045    0.7392423778   -0.1686603881
O        1.5694971188    2.2396673084    1.2656115009
H       -0.3291970716   -0.4701628267   -0.1454339335
H        2.1987159059    0.0306110329    3.2646742225
H       -1.5219945238   -2.2331018505    1.0746531081
H        3.5791404737    3.6306265877    2.3604481829
H        4.2619960034    2.5803347449    1.0918410167
H        4.1782498064    4.3366102649    0.8416337509
H        3.0479777569   -1.7095391015    4.8122547817
H        2.2201210482   -2.1656044461    6.3114181475
H        2.0855136781   -0.4998110569    5.7140201011
H        2.3646623697    3.1958454519   -0.4218608213
H        1.7105531552    4.2537309451    0.8299848821
H        0.3430648486   -2.6922424592    4.9297277971
25   

C       -0.0086039656   -0.7793791416    0.8176301260
C        1.3109634356   -0.3814774233    2.7450938763
C       -0.6141701669   -1.8317468111    1.5037180413
C        0.9698053838   -0.0121552857    1.4471367435
C        0.6627041636   -1.4550453436    3.3615680877
C        1.7132082991    1.0875839118    0.7530705716
C        3.7586082264    3.3800028384    1.2212347202
C        2.0880060063   -1.3943872888    5.4311552521
C        2.2811258226    3.3824325478    0.8405215653
N       -0.2854765279   -2.1625300345    2.7602713597
N        0.9554112030   -1.8820968085    4.6349146656
O        2.2447582032    0.9101320301   -0.3381047874
O        1.6120859241    2.2560960688    1.4249874581
H       -0.2952027809   -0.5667086291   -0.2050205262
H        2.0782801307    0.1663194090    3.2725205652
H       -1.3769189492   -2.4118757718    0.9973584405
H        3.8661703761    3.3978176468    2.3099135482
H        4.2537048101    2.4873173852    0.8269288315
H        4.2513313985    4.2631544765    0.8043231039
H        3.0214124923   -1.4837632491    4.8653600250
H        2.1853590698   -1.9920338781    6.3430937462
H        1.9317160213   -0.3498365796    5.7196449967
H        2.1775474223    3.3824146236   -0.2503457894
H        1.8158671959    4.3006294675    1.2125993195
H        0.4052318585   -2.6887371844    4.9086561229
25   

C        0.0460175223   -0.8233056409    0.7748350687
C        1.2668838117   -0.3354897300    2.7450069431
C       -0.5027224776   -1.9199049905    1.4385714750
C        0.9446829862    0.0132579000    1.4358329513
C        0.6795990879   -1.4563598296    3.3381341340
C        1.6187093045    1.1674762983    0.7636076975
C        3.8305562688    3.3160051815    1.1465346440
C        2.0219021745   -1.2943028793    5.4574006283
C        2.3131557962    3.4149347283    1.0209281735
N       -0.1925138692   -2.2301987809    2.7047365043
N        0.9601848948   -1.8654840600    4.6200812747
O        1.9595849202    1.1094872587   -0.4137392594
O        1.6882116498    2.2482142631    1.5742785240
H       -0.2229522779   -0.6282783527   -0.2563445219
H        1.9732484788    0.2634641000    3.3013938001
H       -1.2035797695   -2.5524607648    0.9062042585
H        4.1138354567    3.1958794295    2.1964896190
H        4.2069320240    2.4625365983    0.5743026021
H        4.2958794847    4.2266568264    0.7582974488
H        2.9803658290   -1.3145172145    4.9279832221
H        2.1281390996   -1.8823306423    6.3745799144
H        1.7775774799   -0.2640166742    5.7359033368
H        2.0345520360    3.5527574872   -0.0298391465
H        1.9639909311    4.2954426707    1.5693466662
H        0.4610905437   -2.7105693599    4.8750640610
25   

C        0.0996739372   -0.8761712905    0.7511833846
C        1.2213561849   -0.3218557174    2.7609736049
C       -0.3999545102   -2.0086551410    1.3924179380
C        0.9256943321    0.0121473110    1.4410200236
C        0.6867554508   -1.4808247382    3.3307469624
C        1.5266111330    1.2178166999    0.7911165458
C        3.8713518891    3.2486366738    1.0126191817
C        1.9345340703   -1.2390340153    5.5002677646
C        2.3601009399    3.4029720829    1.1550618194
N       -0.1120563509   -2.3057487939    2.6665214604
N        0.9475298624   -1.8771954264    4.6209403414
O        1.6811401950    1.2744422661   -0.4252512960
O        1.7815435498    2.2016743472    1.6846133256
H       -0.1533628760   -0.6918551201   -0.2861736295
H        1.8679911136    0.3132864651    3.3488677770
H       -1.0432731466   -2.6801134632    0.8356106698
H        4.3178616167    3.0083534731    1.9821307060
H        4.1091619614    2.4514066299    0.3017192708
H        4.3074238321    4.1823345167    0.6457511001
H        2.9134569256   -1.1974594840    5.0110839111
H        2.0399621590   -1.8191548815    6.4225589275
H        1.6131621601   -0.2266542503    5.7659260915
H        1.9190576374    3.6608067757    0.1856507848
H        2.1465158093    4.2289923897    1.8406471561
H        0.4929403995   -2.7523124008    4.8571037114
25   

C        0.1840437982   -0.9004589384    0.7300060962
C        1.1930840094   -0.3049847980    2.7862085373
C       -0.2740475992   -2.0666858231    1.3404058879
C        0.9360440605    0.0249057155    1.4567222080
C        0.7042530471   -1.4993528990    3.3237162104
C        1.4674248711    1.2804174288    0.8405157902
C        3.9019916003    3.2224377501    0.8634508191
C        1.8449792374   -1.2102393275    5.5461854101
C        2.4412600946    3.3950783249    1.2686289583
N       -0.0180671782   -2.3618532598    2.6212918600
N        0.9331524335   -1.8934628300    4.6207090399
O        1.4447072719    1.4499732504   -0.3752262032
O        1.9096351660    2.1599118889    1.7689637425
H       -0.0468803746   -0.7177244322   -0.3128778298
H        1.7742425865    0.3554337885    3.4130211592
H       -0.8584302830   -2.7657726071    0.7534384637
H        4.4907570183    2.8753021818    1.7177878336
H        3.9899737153    2.4962297397    0.0496030563
H        4.3081206343    4.1786191151    0.5209139659
H        2.8398596413   -1.1098107986    5.0995995939
H        1.9433487611   -1.7925684035    6.4678600415
H        1.4568184826   -0.2198231083    5.8053718418
H        1.8587476347    3.7596020939    0.4150485136
H        2.3742815150    4.1522213361    2.0561508890
H        0.5191828933   -2.7950499937    4.8305062976
25   

C       -0.2165355243   -0.1450523783    1.1671078524
C        1.6037171909   -0.9779460576    2.4288019946
C       -1.0725457344   -0.6644295232    2.1364777898
C        1.1663382290   -0.2939569980    1.2958189243
C        0.6809504638   -1.4630802798    3.3603947457
C        2.1228154593    0.2448069853    0.2788622929
C        4.7248570674    1.9348506886   -0.0428114783
C        2.4251309774   -2.2690242583    4.9830514436
C        4.4007575013    0.4708908631   -0.3241103875
N       -0.6293717510   -1.3147499642    3.2197488352
N        1.0438404517   -2.1312369894    4.5057535879
O        1.7210500454    0.8448500392   -0.7141556891
O        3.4125524201   -0.0123886527    0.5971802610
H       -0.6329993110    0.3739709540    0.3117973203
H        2.6571957791   -1.1409015138    2.6026438720
H       -2.1411791181   -0.5352736896    2.0095909144
H        3.8371901504    2.5579823369   -0.1882735875
H        5.0786443451    2.0507689404    0.9859766137
H        5.5068884968    2.2799064927   -0.7254105029
H        2.9026953519   -1.2867448972    5.0628275587
H        3.0034616194   -2.9048176096    4.3047657567
H        2.4305743788   -2.7313493856    5.9752655201
H        5.3107931100   -0.1263544923   -0.2097903670
H        4.0639253244    0.3569646382   -1.3606516138
H        0.2438688956   -2.3944706170    5.0705496856
25   

C       -0.2422358632   -0.2203955125    1.1243833321
C        1.6037034535   -0.9329982818    2.4227966294
C       -1.0812660406   -0.7914958530    2.0795590844
C        1.1442244831   -0.2867055744    1.2766654845
C        0.6966879220   -1.4741058007    3.3387403947
C        2.0854181185    0.3288016418    0.2899209015
C        4.8122250151    1.8146569993    0.0504840575
C        2.4582191749   -2.1555860081    4.9990817814
C        4.3351832265    0.4497364505   -0.4364518057
N       -0.6176372736   -1.4113990079    3.1723055357
N        1.0801139587   -2.1100897478    4.4956310604
O        1.6814431544    1.0949064708   -0.5802369897
O        3.3595006478   -0.0920785284    0.4652459360
H       -0.6738258697    0.2762344909    0.2633295323
H        2.6627656216   -1.0195227570    2.6169428134
H       -2.1534812342   -0.7281615248    1.9342993875
H        3.9808822537    2.5259728856    0.0696009788
H        5.2328937532    1.7289977790    1.0568351843
H        5.5837591721    2.2003695625   -0.6222091409
H        2.8697057199   -1.1440358345    5.0812745212
H        3.0890243428   -2.7561538715    4.3356282519
H        2.4749520795   -2.6112589036    5.9942449439
H        5.1891853814   -0.2332111642   -0.4834228332
H        3.9308300984    0.5369322631   -1.4511890948
H        0.2883033501   -2.4214248353    5.0473124898
25   

C       -0.2565974405   -0.2887257564    1.0772263451
C        1.5968584167   -0.8835585500    2.4247445353
C       -1.0818249550   -0.9130461288    2.0113278455
C        1.1261735148   -0.2730978143    1.2641520783
C        0.7033468731   -1.4821346541    3.3174986005
C        2.0555403988    0.4204452873    0.3194364472
C        4.8863822964    1.6903011656    0.1066713071
C        2.4622123109   -2.0450776817    5.0239057477
C        4.2563362568    0.4658154889   -0.5503334497
N       -0.6076449988   -1.5042468723    3.1159270813
N        1.0970247983   -2.0891723299    4.4863601121
O        1.6649786939    1.3332110051   -0.4023310360
O        3.2908826578   -0.1320214487    0.3264492013
H       -0.6947607970    0.1875264865    0.2081434818
H        2.6553794699   -0.8941105748    2.6405726836
H       -2.1520945392   -0.9152593438    1.8402498500
H        4.1272449909    2.4548823010    0.2980737402
H        5.3571509839    1.4087179238    1.0533226242
H        5.6485011923    2.1152828684   -0.5529554639
H        2.8061596385   -1.0090879671    5.1119048650
H        3.1463652217   -2.6059080993    4.3787926881
H        2.4831981024   -2.4959610642    6.0211718171
H        5.0387785511   -0.2684561769   -0.7661674149
H        3.8013406506    0.7487407037   -1.5062037146
H        0.3132094735   -2.4496940159    5.0191930681
25   

C       -0.2467571198   -0.3616859393    1.0403240496
C        1.5955274571   -0.8465957482    2.4477772817
C       -1.0606360199   -1.0444664079    1.9434213286
C        1.1245164764   -0.2642390156    1.2737204557
C        0.7133950116   -1.5072009720    3.3071559174
C        2.0434978861    0.5074387316    0.3801788917
C        4.9563320479    1.5598117324    0.1289556620
C        2.4444128341   -1.9547952107    5.0742916749
C        4.1695988679    0.5163248481   -0.6586038918
N       -0.5860544790   -1.6126766951    3.0603712135
N        1.1063902355   -2.0932365434    4.4868251594
O        1.6822488195    1.5477843690   -0.1610090103
O        3.2170185075   -0.1383438967    0.1910952182
H       -0.6842384030    0.0974886697    0.1619841484
H        2.6460244231   -0.7859348885    2.6928082336
H       -2.1226519155   -1.1121871741    1.7378028216
H        4.2875068481    2.3408571048    0.5033316600
H        5.4643966181    1.0877716061    0.9752009791
H        5.7064490556    2.0253216984   -0.5169278741
H        2.7137687136   -0.8975851842    5.1696593097
H        3.1885818950   -2.4694712083    4.4577961301
H        2.4587714938   -2.4003748967    6.0740609213
H        4.8625966007   -0.2329172296   -1.0540328173
H        3.6766501322    0.9897389094   -1.5151131189
H        0.3297830263   -2.5049486861    4.9924487871
25   

C       -0.2263034803   -0.4371276641    1.0142892544
C        1.5843951871   -0.8080383827    2.4970110842
C       -1.0283564119   -1.1828075355    1.8777596923
C        1.1230993140   -0.2501357501    1.3081342066
C        0.7145782790   -1.5356805828    3.3135765894
C        2.0296696126    0.5950169907    0.4669097161
C        4.9956225752    1.4483950311    0.1025638469
C        2.3944690488   -1.8741779513    5.1525318163
C        4.0514176151    0.6176702477   -0.7613103643
N       -0.5629859755   -1.7279781035    3.0102805437
N        1.0973777650   -2.1042948657    4.5050492819
O        1.7184716864    1.7353830599    0.1391611487
O        3.1182500865   -0.0962882479    0.0616781194
H       -0.6566535371    0.0008429027    0.1220098931
H        2.6174548862   -0.6759086500    2.7840028190
H       -2.0737623047   -1.3208391914    1.6271423571
H        4.4363288689    2.2038117143    0.6629399615
H        5.5279614606    0.8016013403    0.8063974988
H        5.7279563623    1.9573681618   -0.5308252302
H        2.5843334376   -0.8010173441    5.2604113698
H        3.1999982935   -2.3331749153    4.5701369091
H        2.3950307873   -2.3210776227    6.1518171508
H        4.6358283909   -0.1048362464   -1.3396194449
H        3.5333145617    1.2662360264   -1.4766086658
H        0.3298982988   -2.5714487178    4.9752010709
25   

C       -0.1719767092   -0.4912874582    0.9950890140
C        1.5738987443   -0.7582040912    2.5761807842
C       -0.9692342675   -1.2985992506    1.8063565634
C        1.1409319227   -0.2152010615    1.3706004875
C        0.7103087791   -1.5513324396    3.3363599522
C        2.0469643606    0.6835808577    0.5815031330
C        5.0414053765    1.3253279586    0.0344901187
C        2.3014366842   -1.7958945937    5.2665002154
C        3.9361578262    0.7405536224   -0.8396120163
N       -0.5328161823   -1.8239381680    2.9597133166
N        1.0641609203   -2.1095886488    4.5416001832
O        1.8398861233    1.8893530341    0.4972628767
O        3.0159077256   -0.0191290977   -0.0433951811
H       -0.5786393092   -0.0778849889    0.0805593494
H        2.5788848865   -0.5626089358    2.9205069703
H       -1.9866043908   -1.5050759190    1.4948183178
H        4.6214961139    2.0203539757    0.7679933747
H        5.5678296459    0.5235720587    0.5609519461
H        5.7588222179    1.8684080387   -0.5875601622
H        2.4103961257   -0.7130774806    5.3890425246
H        3.1698912029   -2.1944400162    4.7320082182
H        2.2731442545   -2.2489363532    6.2626142490
H        4.3829139858    0.0791964311   -1.5886291437
H        3.4228684341    1.5448832164   -1.3784544799
H        0.3039306860   -2.6309117393    4.9641664745
25   

C       -0.0790564787   -0.5503168879    0.9641136545
C        1.5730880981   -0.7082871741    2.6583183946
C       -0.8699696078   -1.4172285792    1.7184250980
C        1.1784032318   -0.1785902047    1.4342456214
C        0.7183615972   -1.5652968981    3.3564815745
C        2.0927780181    0.7569022311    0.6967483108
C        5.0819674625    1.1859796854   -0.0732449328
C        2.1960781625   -1.7222173086    5.3831110142
C        3.8352676921    0.8762054449   -0.8960675593
N       -0.4761771792   -1.9183922659    2.8976958430
N        1.0324324774   -2.1123873032    4.5777655269
O        2.0508303831    1.9700487255    0.8701981152
O        2.9135645128    0.0826175792   -0.1352794962
H       -0.4475238947   -0.1692969903    0.0200214508
H        2.5393153127   -0.4500843359    3.0665223224
H       -1.8456147108   -1.6953705256    1.3370069546
H        4.8208157047    1.7792806257    0.8082937510
H        5.5598821584    0.2561255076    0.2492714144
H        5.7932758802    1.7564797857   -0.6775337015
H        2.2219184527   -0.6358255212    5.5190685087
H        3.1224718730   -2.0545460852    4.9034284323
H        2.1355165446   -2.1867469598    6.3724665078
H        4.1259012597    0.3167759638   -1.7908290913
H        3.3695013433    1.8097440705   -1.2313356305
H        0.2840803115   -2.6880681032    4.9476037590
25   

C       -0.1916876298    0.4776497533    1.9952032063
C        1.5950536691   -0.5203387440    3.1958135702
C       -0.9808968421   -0.6161657915    2.3511026757
C        1.1296548116    0.5444761474    2.4313202580
C        0.7421270422   -1.5840784075    3.5020307164
C        2.0642035502    1.6652146493    2.0816458433
C        2.5879703139    3.8704187152   -0.0467226755
C        2.5119692756   -2.9334696052    4.6712720691
C        3.3551893906    2.6098431438    0.3406598081
N       -0.5205165469   -1.6322346123    3.0943513378
N        1.1324114266   -2.6751360810    4.2414881760
O        2.4469761882    2.4727182446    2.9214852241
O        2.4514899346    1.5905213845    0.7904744583
H       -0.6101069204    1.2678447199    1.3847809542
H        2.6149118125   -0.5169050513    3.5525549468
H       -2.0089544593   -0.6484486774    2.0093744813
H        1.8570318951    3.6403731130   -0.8277008737
H        2.0660317082    4.2827885000    0.8221666435
H        3.2820789956    4.6261384591   -0.4257489663
H        3.1864685015   -2.9405899914    3.8085523333
H        2.5720121611   -3.9120115751    5.1582279170
H        2.8395581188   -2.1730329524    5.3876754477
H        4.0978490432    2.8479463375    1.1104034695
H        3.8987437327    2.2377223457   -0.5334526391
H        0.3886908348   -3.3544844483    4.3572790457
25   

C       -0.1111930593    0.4083997774    1.8778433916
C        1.6169818908   -0.5496494558    3.1933458803
C       -0.9240174215   -0.6627585531    2.2492681842
C        1.1903809309    0.4867981722    2.3689902084
C        0.7426907789   -1.5923740691    3.5105850361
C        2.1632637171    1.5647232543    1.9994691637
C        2.5815914358    3.9770381392    0.0847446358
C        2.4550554300   -2.9060300257    4.7990635796
C        3.2614318299    2.6150108062    0.1870972223
N       -0.5035434848   -1.6478842565    3.0554509341
N        1.0943892810   -2.6548388633    4.3087343202
O        2.7714242431    2.2049230480    2.8511756400
O        2.3353237666    1.6271883076    0.6609239646
H       -0.4944283463    1.1703748208    1.2109107252
H        2.6231140514   -0.5394606529    3.5878620797
H       -1.9368438917   -0.7040794206    1.8656114533
H        1.7171521445    3.9163648051   -0.5832358184
H        2.2488459678    4.3135683505    1.0714091448
H        3.2841737168    4.7140633369   -0.3149111715
H        3.1607948655   -2.9516200971    3.9628951255
H        2.4889539677   -3.8651972179    5.3254731424
H        2.7626639136   -2.1203968946    5.4969060796
H        4.1366834138    2.6840691058    0.8427444894
H        3.6184709349    2.3166163121   -0.8035977023
H        0.3413652742   -3.3241020116    4.4226876475
25   

C       -0.0554134400    0.3215691597    1.7613408969
C        1.6311893514   -0.5846201496    3.1663688020
C       -0.8890188524   -0.7197594199    2.1693980047
C        1.2362900203    0.4113282767    2.2778993148
C        0.7371651030   -1.5994207881    3.5170908542
C        2.2366573867    1.4520709803    1.8829800443
C        2.5848938806    4.0588588818    0.2269724905
C        2.4034684246   -2.8610468850    4.9131234206
C        3.1463935086    2.6503706935    0.0571416557
N       -0.4988868949   -1.6652717707    3.0360519565
N        1.0574942914   -2.6221775277    4.3778977198
O        3.0168975277    1.9369441094    2.6971431964
O        2.2153311514    1.6766181279    0.5502564483
H       -0.4149826933    1.0511111603    1.0464536677
H        2.6280926786   -0.5665122220    3.5840414123
H       -1.8931972459   -0.7705755586    1.7647244084
H        1.6291452843    4.1484060202   -0.2980377410
H        2.4336631169    4.2852346672    1.2868673283
H        3.2843495323    4.7903986171   -0.1879444645
H        3.1279687968   -2.9580099530    4.0976232908
H        2.4141317726   -3.7912676871    5.4900290740
H        2.7038215582   -2.0427178457    5.5756699123
H        4.1116910821    2.5700448597    0.5694527114
H        3.3244829454    2.4607061547   -1.0060104815
H        0.2945708526   -3.2769900931    4.5084204848
25   

C       -0.0131327121    0.2326634199    1.6523120355
C        1.6473094957   -0.6079978665    3.1289485267
C       -0.8614874672   -0.7766175231    2.1073988938
C        1.2752272714    0.3374285869    2.1769973632
C        0.7388005065   -1.5931723223    3.5240681589
C        2.2928626729    1.3492863493    1.7544323251
C        2.6183561230    4.1246357481    0.3855720005
C        2.3739515815   -2.7885812062    5.0121135715
C        3.0333384426    2.7164442069   -0.0299081471
N       -0.4912667077   -1.6754539954    3.0304738835
N        1.0371827880   -2.5675278716    4.4467659695
O        3.2076253270    1.6910241714    2.4992489619
O        2.1031844690    1.7486963904    0.4769495955
H       -0.3610632661    0.9256433806    0.8963125130
H        2.6375901726   -0.5785955737    3.5617671724
H       -1.8615386914   -0.8402601087    1.6944012030
H        1.6097259492    4.3421674634    0.0216687218
H        2.6344249970    4.2223909324    1.4753686159
H        3.3113947243    4.8567756031   -0.0389497403
H        3.1081068234   -2.9356606037    4.2128956116
H        2.3686469028   -3.6862550259    5.6385192032
H        2.6732713926   -1.9381201575    5.6333866588
H        4.0505192418    2.5092628281    0.3210333705
H        3.0463503928    2.6538567982   -1.1225592040
H        0.2666840553   -3.2077187755    4.6026590859
25   

C        0.0079498059    0.1322046814    1.5457536053
C        1.6517749399   -0.6378501857    3.0786437968
C       -0.8513052552   -0.8437444746    2.0501066448
C        1.2967201392    0.2531015914    2.0689075051
C        0.7322684836   -1.5920600764    3.5215158724
C        2.3240808932    1.2414399867    1.6137058883
C        2.6697280608    4.1512835543    0.5571097511
C        2.3446274938   -2.7108658143    5.0920686823
C        2.9106865402    2.7865933298   -0.0810912937
N       -0.4945380321   -1.6929836953    3.0237365404
N        1.0148356836   -2.5135135970    4.5018487143
O        3.3513451351    1.4436901485    2.2565442798
O        1.9878642539    1.8184027493    0.4385311760
H       -0.3350654167    0.7865096654    0.7538592915
H        2.6373281335   -0.5952203129    3.5210118354
H       -1.8497049300   -0.9213358322    1.6354958868
H        1.6402482275    4.4745282298    0.3761512808
H        2.8459029519    4.1055784436    1.6361428218
H        3.3517695274    4.8892378065    0.1249137479
H        3.0850371946   -2.9097306586    4.3100059470
H        2.3265287312   -3.5701850765    5.7699055443
H        2.6448395067   -1.8276943365    5.6654402040
H        3.9476341315    2.4748135750    0.0871467196
H        2.7657419898    2.8659672259   -1.1630582895
H        0.2382431672   -3.1383626491    4.6869144722
25   

C        0.0014647475    0.0232529812    1.4471723041
C        1.6331767285   -0.6590573192    3.0337092134
C       -0.8620722287   -0.9224978181    1.9993762554
C        1.2886617472    0.1698137672    1.9688291751
C        0.7095277129   -1.5862156268    3.5229892268
C        2.3164778368    1.1413422201    1.4788156812
C        2.7401600772    4.1390549960    0.7286298855
C        2.3081456372   -2.6137530342    5.1680696776
C        2.7782792711    2.8526384230   -0.0906054388
N       -0.5130962229   -1.7157040493    3.0217504548
N        0.9826265662   -2.4480323703    4.5587150807
O        3.4312454101    1.2111947233    1.9909388894
O        1.8634430729    1.8860432065    0.4460764992
H       -0.3383535872    0.6338910062    0.6198220101
H        2.6136319818   -0.5916102343    3.4841739320
H       -1.8578818962   -1.0221890053    1.5832611050
H        1.7247786893    4.5463129683    0.7420795647
H        3.0625321982    3.9477227612    1.7566642559
H        3.4115372133    4.8809485704    0.2865761461
H        3.0537018417   -2.8562322718    4.4033847793
H        2.2842892524   -3.4341821972    5.8923204002
H        2.6055667192   -1.7004756682    5.6937470786
H        3.8002506311    2.4580222477   -0.1163859334
H        2.4892494694    3.0759387897   -1.1223792035
H        0.2046077523   -3.0621324448    4.7716544375
