46   

C       -4.9398946705   -4.3107584846   -2.6842632006
C       -5.6835972866   -3.1492238091   -2.3965494511
C       -3.6472836162   -4.4745177176   -2.1575003760
C       -0.7753705851   -4.2041201520   -0.5897268632
C       -5.1382214326   -2.1398395486   -1.5848932189
C        0.3246902815   -3.8094003625    0.1945549461
C       -0.7772617843   -1.7157351727    0.7282031303
C       -3.1321321219   -3.4579674533   -1.3525841458
C       -1.8649397506   -3.3381064392   -0.6708062688
C       -3.8537486552   -2.3085195598   -1.0721942250
C       -1.8709601040   -2.1190642327   -0.0234085981
C        0.3274417622   -2.5701717483    0.8695988893
C       -0.1084061260   -3.1251394207    4.9941236752
C        0.2579546895   -2.4908658047    3.8338772789
C       -1.3307651384   -4.0965065751    5.1166006759
C        0.2236480910   -3.4707312389    7.4023715209
C       -1.0815782685   -1.5129945025    6.5995398206
C       -1.1561260745   -4.1538223962    7.5604011920
C       -2.3700992081   -2.3607517146    6.4438864744
C        0.1622416333   -2.3892483219    6.3001086721
C        1.4290192047   -2.8409161203    2.9444572364
N       -3.0872248969   -1.4670809003   -0.2547324274
N       -2.0017106891   -3.7962361240    6.4016264109
O        1.3864658127   -2.1891578407    1.6612651434
F       -0.3282844292   -1.2888992798    3.6192246975
H       -5.3680048184   -5.0817440287   -3.3144032542
H       -6.6817487173   -3.0311547794   -2.8031612891
H       -3.0657182994   -5.3630071681   -2.3695483176
H       -0.7826251294   -5.1535902627   -1.1109981141
H       -5.7025130710   -1.2441324650   -1.3582462277
H        1.1861117872   -4.4589967082    0.2819083613
H       -0.7843807074   -0.7535695445    1.2214270557
H       -2.0191329467   -3.9373252508    4.2792174701
H       -0.9941462202   -5.1380817863    5.0900415658
H        0.5279278370   -3.0411765170    8.3618574777
H        0.9731366098   -4.2151659702    7.1170652796
H       -1.1380753194   -0.6421232391    5.9399523635
H       -1.0079290260   -1.1373057582    7.6247345511
H       -1.0350926636   -5.2386035551    7.6446074077
H       -1.6425527026   -3.7999255737    8.4760535844
H       -3.0648918507   -2.1494536567    7.2632621332
H       -2.8740645720   -2.0932213357    5.5079886668
H        1.0844397856   -1.7997926017    6.2639851149
H        1.4528791128   -3.9255521955    2.8026816744
H        2.3537115693   -2.5593711058    3.4561651622
H       -3.3596672683   -0.5643435622    0.1158062038
46   

C       -5.0732637364   -4.2355055974   -2.3746834972
C       -5.7857509663   -3.0653551312   -2.0459620282
C       -3.7645121222   -4.4260666400   -1.8999096491
C       -0.8244990418   -4.2129374908   -0.4625692668
C       -5.1937332083   -2.0752383746   -1.2430440782
C        0.3195930280   -3.8387880204    0.2652327611
C       -0.7345075481   -1.7462873294    0.8957352868
C       -3.2027195573   -3.4277681097   -1.1034210061
C       -1.9065737047   -3.3343967051   -0.4753425553
C       -3.8943998213   -2.2714841616   -0.7798654626
C       -1.8678473704   -2.1253177907    0.1905334872
C        0.3701938188   -2.6099419311    0.9553441236
C       -0.0444380143   -3.0815836873    4.9806327521
C        0.4110045791   -2.4188457199    3.8819365255
C       -1.1677434850   -4.1601487085    4.9258018603
C       -0.0492264622   -3.4148601370    7.4142733801
C       -1.4055915508   -1.5845771999    6.4175344286
C       -1.3647616955   -4.2283011215    7.3669970837
C       -2.5653560294   -2.5513824844    6.0702791142
C       -0.0511240366   -2.3326148625    6.3103762996
C        1.5446932858   -2.8426310824    2.9861214424
N       -3.0832634905   -1.4534214827    0.0185912027
N       -2.0546724325   -3.9428614680    6.0910458260
O        1.4815930460   -2.2486259351    1.6781927269
F        0.1071166567   -1.0989520526    3.8098118552
H       -5.5374702601   -4.9920118616   -2.9968102072
H       -6.7959075025   -2.9257701991   -2.4142536620
H       -3.2057748095   -5.3207399159   -2.1450121031
H       -0.8680713009   -5.1541239890   -0.9970115288
H       -5.7337513944   -1.1728379616   -0.9860067246
H        1.1799829947   -4.4950755724    0.2954684643
H       -0.7049311362   -0.7937125002    1.4066720663
H       -1.7337437932   -4.0619046931    3.9926667380
H       -0.7318921391   -5.1641602989    4.9557285084
H        0.0668442044   -2.9690203797    8.4069706733
H        0.8025500143   -4.0809915406    7.2460948629
H       -1.4494587323   -0.7143398196    5.7563679987
H       -1.5229438442   -1.2179109300    7.4419606700
H       -1.1546278792   -5.2972104280    7.4754322589
H       -2.0156654928   -3.9296518197    8.1961016680
H       -3.3942375906   -2.4174272238    6.7729226872
H       -2.9437573524   -2.3240962597    5.0669919334
H        0.8049975978   -1.6573597188    6.4136037475
H        1.5400344253   -3.9330511415    2.8951983702
H        2.4890191961   -2.5582656021    3.4590828137
H       -3.3237229327   -0.5474697172    0.4031469313
46   

C       -5.2508503325   -4.2848348090   -1.5870027651
C       -5.8910767576   -3.0778508507   -1.2431600344
C       -3.9024877326   -4.4925151462   -1.2519565086
C       -0.8202236161   -4.3078161657   -0.1623297548
C       -5.1867843916   -2.0679267615   -0.5649729113
C        0.4051891575   -3.9418992695    0.4207324238
C       -0.5105683845   -1.7848547576    1.0532258165
C       -3.2292944390   -3.4741235443   -0.5772446426
C       -1.8701152714   -3.3933563354   -0.1019884431
C       -3.8490372944   -2.2817771037   -0.2396682839
C       -1.7240061511   -2.1557516029    0.4929013282
C        0.5651782247   -2.6873043836    1.0406992563
C        0.0453360488   -3.0035219940    4.7951685011
C        0.6983427582   -2.2921703824    3.8500364341
C       -0.9530312085   -4.1334364092    4.4228087182
C       -0.5887756421   -3.4304360941    7.1339087102
C       -1.7110031433   -1.6199844940    5.8431113186
C       -1.8046817690   -4.2900788157    6.7154749544
C       -2.6860000021   -2.6226089893    5.1733328087
C       -0.3453115436   -2.3096904625    6.0975400552
C        1.8570660085   -2.7497179995    3.0145357284
N       -2.9314796706   -1.4523386928    0.4201470891
N       -2.1331117709   -3.9921008747    5.3056233482
O        1.7544645038   -2.3478661254    1.6368973587
F        0.6124205166   -0.9403662590    3.9401806134
H       -5.8013532168   -5.0569688215   -2.1119023484
H       -6.9325840411   -2.9255511587   -1.5028929671
H       -3.3978752539   -5.4155255209   -1.5092412216
H       -0.9493801710   -5.2709332041   -0.6408392891
H       -5.6710694971   -1.1375119858   -0.2971950993
H        1.2439539320   -4.6259931580    0.3966284234
H       -0.3963559866   -0.8126568860    1.5134303711
H       -1.2523173642   -4.0374017053    3.3726520411
H       -0.4857226462   -5.1145695111    4.5560725591
H       -0.7615177139   -3.0176781613    8.1326205650
H        0.3067530282   -4.0575437592    7.1821911605
H       -1.6102611052   -0.7351017559    5.2077247369
H       -2.1202996322   -1.2881017046    6.8022392815
H       -1.5853610988   -5.3531892699    6.8574104925
H       -2.6688295187   -4.0401801738    7.3408121462
H       -3.6799253290   -2.5455003691    5.6258266225
H       -2.7884114784   -2.3799063075    4.1090494579
H        0.4194054520   -1.6079137661    6.4473042806
H        1.9433436060   -3.8386890250    3.0765019134
H        2.7745019833   -2.3245433206    3.4318671357
H       -3.1014132454   -0.5189578368    0.7755982586
46   

C       -5.3154480294   -4.1707519667   -1.1885031949
C       -5.9023785447   -2.9274421666   -0.8810209473
C       -3.9629385920   -4.4083557225   -0.8929795372
C       -0.8386288582   -4.2796950530    0.0714089236
C       -5.1405108757   -1.9114122362   -0.2781655528
C        0.4179614099   -3.9326208009    0.5958425161
C       -0.4016151875   -1.7188440975    1.1631121431
C       -3.2319611703   -3.3828040818   -0.2936096944
C       -1.8542177171   -3.3271777768    0.1274656455
C       -3.7992320621   -2.1556119041    0.0092578866
C       -1.6454900104   -2.0700623923    0.6596343240
C        0.6407031470   -2.6599490937    1.1562451021
C        0.0723572129   -2.9022612551    4.7863202172
C        0.8234201134   -2.1882043054    3.9294956839
C       -0.7448597660   -4.1296113697    4.3217175223
C       -0.8688824251   -3.3097854369    7.0234355702
C       -1.9180366231   -1.6490304135    5.4830954788
C       -1.9242716233   -4.2917126302    6.4646193541
C       -2.6979585318   -2.7621057653    4.7335613411
C       -0.5623132996   -2.2062189242    5.9859286737
C        1.9716149692   -2.6812360186    3.1053909848
N       -2.8308928671   -1.3290076377    0.5963900341
N       -2.0544972614   -4.0700390172    5.0093568713
O        1.8559357719   -2.3441561779    1.7109216245
F        0.8078333314   -0.8386352046    4.0778000569
H       -5.9101653390   -4.9478685511   -1.6545442030
H       -6.9473621628   -2.7520399421   -1.1104090425
H       -3.4987608454   -5.3594872708   -1.1226046645
H       -1.0175772582   -5.2579300460   -0.3578922361
H       -5.5839238868   -0.9533094661   -0.0388032382
H        1.2311892762   -4.6470461637    0.5761932980
H       -0.2382855314   -0.7342274260    1.5804964072
H       -0.8899860325   -4.0969782408    3.2363018485
H       -0.2181257286   -5.0567099640    4.5701766457
H       -1.2303509295   -2.8822895929    7.9637297950
H        0.0587917140   -3.8496536851    7.2371906290
H       -1.7775011592   -0.7939440494    4.8147442882
H       -2.4982389998   -1.3041177669    6.3444679543
H       -1.6362454423   -5.3245236724    6.6857871615
H       -2.8933777441   -4.1053529311    6.9402493939
H       -3.7488847598   -2.7611467782    5.0403822129
H       -2.6697563032   -2.5688067022    3.6545448336
H        0.0779107879   -1.4293100252    6.4172657087
H        2.0633112541   -3.7657752304    3.2166966171
H        2.8923257413   -2.2350094712    3.4925748397
H       -2.9553120205   -0.3731618971    0.9084540026
46   

C       -5.3340791930   -4.0750187291   -0.9886808070
C       -5.8837809556   -2.8144027402   -0.6829311605
C       -3.9793900786   -4.3394660688   -0.7280224008
C       -0.8278877789   -4.2708272124    0.1496345969
C       -5.0824297919   -1.8080673546   -0.1160276767
C        0.4477292213   -3.9494744325    0.6438678090
C       -0.3060255610   -1.7109867173    1.2059677519
C       -3.2086476016   -3.3227647682   -0.1644388089
C       -1.8191648491   -3.2938879829    0.2190178311
C       -3.7394650940   -2.0791673166    0.1375447029
C       -1.5680689212   -2.0362617001    0.7311806149
C        0.7118838948   -2.6786501079    1.1906138550
C        0.0908095355   -2.8309921465    4.7378695807
C        0.9350982890   -2.1521042421    3.9520650036
C       -0.5806171267   -4.1446485638    4.2934376684
C       -1.0080932603   -3.1502835158    6.9144840975
C       -2.0354257831   -1.7019706673    5.1539879850
C       -1.9120744032   -4.2686468564    6.3480699012
C       -2.6720957232   -2.9346866185    4.4575549886
C       -0.6976449193   -2.1038949331    5.8211592362
C        2.0568476512   -2.7030735235    3.1317737339
N       -2.7371108819   -1.2681537605    0.6882380362
N       -1.9416576575   -4.1566883532    4.8748408946
O        1.9416032576   -2.3930718833    1.7301160087
F        0.9890870111   -0.8059645022    4.1193794343
H       -5.9592670249   -4.8447946309   -1.4262070057
H       -6.9306276391   -2.6182703346   -0.8855767631
H       -3.5437329173   -5.3043735837   -0.9561722606
H       -1.0400689358   -5.2490932673   -0.2642298548
H       -5.4973297767   -0.8369458540    0.1220316643
H        1.2421591206   -4.6845028787    0.6163014483
H       -0.1109019691   -0.7274564127    1.6121771425
H       -0.6417353094   -4.1887988824    3.2014278065
H       -0.0029431818   -5.0068422818    4.6421517096
H       -1.4963883040   -2.6881784163    7.7779455630
H       -0.0626740087   -3.5817666104    7.2577745790
H       -1.8840767457   -0.9084020420    4.4154657031
H       -2.7137953370   -1.3185040397    5.9222612896
H       -1.5427151404   -5.2497920087    6.6637952069
H       -2.9304599634   -4.1544216898    6.7350886933
H       -3.7355490135   -3.0034928631    4.7085369758
H       -2.5981130093   -2.8232944108    3.3695755988
H       -0.1651885264   -1.2454366725    6.2438522428
H        2.1135929131   -3.7873334894    3.2660121966
H        2.9957974133   -2.2808879873    3.5017746597
H       -2.8306866561   -0.3053358367    0.9896795239
46   

C       -5.3436702997   -4.0084943259   -0.9206772209
C       -5.8818443819   -2.7467670319   -0.5995041690
C       -3.9887600997   -4.2846789216   -0.6736129166
C       -0.8310462294   -4.2476295761    0.1830598681
C       -5.0687907628   -1.7512316027   -0.0301504411
C        0.4484040756   -3.9430197704    0.6781028548
C       -0.2852390955   -1.7054851901    1.2701519695
C       -3.2061359090   -3.2783582028   -0.1076094907
C       -1.8139626939   -3.2634803228    0.2670282727
C       -3.7257962878   -2.0340569297    0.2103383597
C       -1.5505586591   -2.0135861124    0.7920905194
C        0.7238095340   -2.6821418788    1.2425064114
C        0.0198144401   -2.7816915830    4.7021298551
C        0.9684981790   -2.1428781310    4.0141347351
C       -0.5457466590   -4.1485617378    4.2871496063
C       -1.1902555046   -3.0200598522    6.8248165477
C       -2.1892671967   -1.7659215619    4.9037622493
C       -1.9610221247   -4.2467420302    6.2863945627
C       -2.7247898075   -3.0857509862    4.2877894926
C       -0.8777558116   -2.0322825545    5.6795250040
C        2.0605530756   -2.7410842757    3.1884881942
N       -2.7138792048   -1.2360272039    0.7626171731
N       -1.9284546735   -4.2230905794    4.8089943198
O        1.9548340666   -2.4163616887    1.7891932097
F        1.1058411631   -0.8103180608    4.2310194579
H       -5.9780049421   -4.7700816224   -1.3594479323
H       -6.9289144965   -2.5415486322   -0.7918872403
H       -3.5621562604   -5.2508736318   -0.9132460425
H       -1.0528137093   -5.2195050398   -0.2407969282
H       -5.4750578779   -0.7795045890    0.2200577229
H        1.2360429195   -4.6849037522    0.6406395141
H       -0.0812749985   -0.7296532261    1.6904377936
H       -0.5536601120   -4.2433485492    3.1973380687
H        0.0664151472   -4.9565513052    4.7007836783
H       -1.7764837531   -2.5366516436    7.6123395897
H       -0.2446603253   -3.3481150143    7.2676744185
H       -2.0250902587   -1.0359164267    4.1048576917
H       -2.9330030751   -1.3497356441    5.5900686540
H       -1.5193578246   -5.1700515832    6.6753846411
H       -3.0025971131   -4.2073782274    6.6230884417
H       -3.7865897752   -3.2086957670    4.5247931025
H       -2.6352105480   -3.0483774803    3.1965194413
H       -0.4325060864   -1.1119216011    6.0708567230
H        2.0698158706   -3.8275681357    3.3153917167
H        3.0191723544   -2.3649739483    3.5577950495
H       -2.7981458021   -0.2751900687    1.0731088893
46   

C       -5.3046998254   -3.9153230574   -0.9111452952
C       -5.8511666981   -2.6653030734   -0.5597356256
C       -3.9496377497   -4.1909564557   -0.6641392269
C       -0.7961183564   -4.1594099408    0.2076082624
C       -5.0464612791   -1.6812375666    0.0406180850
C        0.4796550824   -3.8612229263    0.7157834224
C       -0.2701375124   -1.6469370660    1.3718085241
C       -3.1752635004   -3.1959697579   -0.0673373758
C       -1.7849983748   -3.1836431787    0.3148201463
C       -3.7033435338   -1.9635764739    0.2813385619
C       -1.5312479383   -1.9476229125    0.8767770585
C        0.7450999289   -2.6154642947    1.3178649811
C       -0.0028377117   -2.7530021831    4.6956960894
C        1.0371959478   -2.1471676133    4.1228195099
C       -0.5016654952   -4.1467393051    4.2982092098
C       -1.2642585909   -2.9508395414    6.7877783024
C       -2.2598089549   -1.8279035914    4.7864324546
C       -1.9390135178   -4.2461411897    6.2809174937
C       -2.7336074973   -3.1972408145    4.2332489930
C       -0.9623736088   -1.9999855370    5.6093390982
C        2.0892857727   -2.7516442303    3.2521537754
N       -2.6988198267   -1.1757684661    0.8612063504
N       -1.8865392688   -4.2718694921    4.8037480243
O        1.9731051757   -2.3553734039    1.8730395080
F        1.2599860126   -0.8479205010    4.4431082389
H       -5.9327523947   -4.6681981929   -1.3734338084
H       -6.8981899485   -2.4602976893   -0.7527536372
H       -3.5168693134   -5.1483174731   -0.9271019566
H       -1.0104176761   -5.1201313483   -0.2446457816
H       -5.4592852154   -0.7185786056    0.3140944660
H        1.2720099846   -4.5968321026    0.6589707314
H       -0.0731222107   -0.6837161985    1.8234034747
H       -0.4906529416   -4.2614457530    3.2106009738
H        0.1384922802   -4.9198179473    4.7355255251
H       -1.9109326528   -2.4657267152    7.5253611874
H       -0.3218855267   -3.2008833287    7.2851071783
H       -2.0949563409   -1.1394533142    3.9518784613
H       -3.0379548748   -1.3987990791    5.4249183104
H       -1.4377244387   -5.1221831644    6.7054544138
H       -2.9848336636   -4.2708614270    6.6054567176
H       -3.7875808458   -3.3586793598    4.4818663274
H       -2.6501623447   -3.2053471813    3.1411363118
H       -0.5758523954   -1.0417886954    5.9702801925
H        2.0567144084   -3.8423520224    3.3279422995
H        3.0689673530   -2.4334228464    3.6206593462
H       -2.7897438604   -0.2233613620    1.1949391313
46   

C       -5.2925543512   -3.9060203901   -0.8973869591
C       -5.8466885805   -2.6598835619   -0.5442843948
C       -3.9376057818   -4.1764129573   -0.6438188783
C       -0.7879833768   -4.1320825545    0.2415423027
C       -5.0498852919   -1.6746279114    0.0646054902
C        0.4851606747   -3.8282680034    0.7529377054
C       -0.2794772590   -1.6227224905    1.4209304086
C       -3.1710747464   -3.1802473348   -0.0386935999
C       -1.7825986001   -3.1624467466    0.3502205713
C       -3.7068559360   -1.9518572651    0.3120384237
C       -1.5375582815   -1.9277284890    0.9192673606
C        0.7421154580   -2.5833105708    1.3610969913
C        0.0000738731   -2.7347263992    4.6686878108
C        1.1155808095   -2.1791700369    4.1964196801
C       -0.4690687953   -4.1504685371    4.3220834429
C       -1.2605393123   -2.8613130511    6.7618727412
C       -2.2834707807   -1.8591188863    4.7138474093
C       -1.8945309858   -4.1992402891    6.3149529284
C       -2.7252293015   -3.2629966004    4.2266698984
C       -0.9814316431   -1.9596090825    5.5399268609
C        2.1185481442   -2.7777118385    3.2653378499
N       -2.7091450114   -1.1617223787    0.9004438477
N       -1.8481296588   -4.2887318743    4.8396336008
O        1.9691795612   -2.3124668095    1.9122267289
F        1.4242470359   -0.9286305769    4.6209934299
H       -5.9145973728   -4.6598146834   -1.3663065058
H       -6.8934762307   -2.4587707324   -0.7427339345
H       -3.4990954917   -5.1307009668   -0.9084428186
H       -0.9955475864   -5.0917329366   -0.2161442265
H       -5.4686984448   -0.7148725715    0.3392122862
H        1.2823383354   -4.5582657143    0.6917583265
H       -0.0882637997   -0.6616243057    1.8794070243
H       -0.4613845743   -4.3010800908    3.2388341071
H        0.1905897844   -4.8939585356    4.7812266985
H       -1.9250580171   -2.3604573119    7.4725666726
H       -0.3140753514   -3.0593465362    7.2747347285
H       -2.1367668109   -1.2059185149    3.8487201797
H       -3.0710020879   -1.4194384390    5.3333727880
H       -1.3621182270   -5.0389616494    6.7736790747
H       -2.9371612465   -4.2446029956    6.6473534701
H       -3.7731639664   -3.4393843279    4.4902178705
H       -2.6483267397   -3.3181420850    3.1354407065
H       -0.6226906783   -0.9742180230    5.8526512639
H        2.0519677406   -3.8691246344    3.2933465362
H        3.1201550639   -2.5089941157    3.6138405273
H       -2.8063935783   -0.2105229572    1.2358242263
46   

C       -5.2813318881   -3.9127710785   -0.9100945513
C       -5.8488733507   -2.6705395976   -0.5646628170
C       -3.9274772743   -4.1729024034   -0.6402114218
C       -0.7883703309   -4.1036355455    0.2811856921
C       -5.0666183216   -1.6789105466    0.0526568171
C        0.4772127134   -3.7888569111    0.8046890445
C       -0.3118722567   -1.5895708669    1.4641925539
C       -3.1754918417   -3.1705874103   -0.0268920521
C       -1.7916581316   -3.1418273936    0.3781343341
C       -3.7245134584   -1.9459276612    0.3160935011
C       -1.5623415613   -1.9047466865    0.9487024284
C        0.7182279334   -2.5407383977    1.4139608879
C       -0.0201056039   -2.7347197210    4.6488055514
C        1.1621831207   -2.2359145174    4.2843712894
C       -0.4793174351   -4.1647185064    4.3503376634
C       -1.2741279386   -2.7903532575    6.7444853562
C       -2.3196975980   -1.8811634108    4.6684017296
C       -1.8935563576   -4.1525326463    6.3516798496
C       -2.7445056347   -3.3061678695    4.2322192322
C       -1.0106060565   -1.9344105558    5.4865040232
C        2.1244424563   -2.7991456767    3.2889300793
N       -2.7395865181   -1.1476782150    0.9148993881
N       -1.8541040576   -4.2982131411    4.8801873150
O        1.9383057745   -2.2531065173    1.9717413982
F        1.5447929210   -1.0552486355    4.8308451720
H       -5.8922141201   -4.6714257585   -1.3858264589
H       -6.8947125583   -2.4773441722   -0.7756873563
H       -3.4788960622   -5.1240937019   -0.8990139374
H       -0.9835037657   -5.0651070878   -0.1781648141
H       -5.4958295647   -0.7220664926    0.3213468402
H        1.2809243936   -4.5120943430    0.7497356291
H       -0.1324549680   -0.6272531077    1.9247042028
H       -0.4770160904   -4.3479065988    3.2719900909
H        0.1900684874   -4.8880739059    4.8272759641
H       -1.9422991764   -2.2701870538    7.4376468044
H       -0.3236569992   -2.9567868128    7.2612739310
H       -2.1909856590   -1.2539190867    3.7821515806
H       -3.1084035063   -1.4328750960    5.2802603067
H       -1.3480466786   -4.9674848621    6.8388419946
H       -2.9336660270   -4.1983359096    6.6917814558
H       -3.7900934625   -3.4856985251    4.5028621249
H       -2.6671791987   -3.3986796382    3.1434624768
H       -0.6628069080   -0.9321526653    5.7549614326
H        2.0367001856   -3.8890654064    3.2595092472
H        3.1420690857   -2.5684226233    3.6177532591
H       -2.8481541682   -0.1967612414    1.2475831229
46   

C       -5.2831016512   -3.9250682717   -0.9311088464
C       -5.8538445230   -2.6762030989   -0.6162403788
C       -3.9348723499   -4.1835768661   -0.6327415286
C       -0.8127000634   -4.1058083203    0.3454949223
C       -5.0803065165   -1.6761208510   -0.0016402775
C        0.4440716492   -3.7848061705    0.8863834686
C       -0.3510674583   -1.5730208725    1.4936780507
C       -3.1915046672   -3.1728710002   -0.0226079812
C       -1.8150840398   -3.1402889980    0.4071516167
C       -3.7436314515   -1.9414628465    0.2897595458
C       -1.5928845029   -1.8941951494    0.9604381236
C        0.6775105594   -2.5263625070    1.4786257301
C       -0.0617450285   -2.7871077836    4.6355553191
C        1.1737570683   -2.3454640732    4.3797326362
C       -0.5236630762   -4.2301454427    4.4004114869
C       -1.3202718941   -2.7511513993    6.7262778438
C       -2.3711015722   -1.9348363801    4.6186423930
C       -1.9462775523   -4.1265292816    6.3926740247
C       -2.7854264235   -3.3762001797    4.2312396553
C       -1.0581762280   -1.9513769610    5.4310777784
C        2.1123585937   -2.8465635925    3.3271155816
N       -2.7675604031   -1.1352337180    0.8922184929
N       -1.9009362623   -4.3393016770    4.9291996955
O        1.8881531604   -2.2248448664    2.0502136770
F        1.6050464344   -1.2468247934    5.0475704812
H       -5.8872400128   -4.6900758899   -1.4052880290
H       -6.8953580485   -2.4843682495   -0.8488741131
H       -3.4840912883   -5.1398369849   -0.8679202085
H       -1.0018605085   -5.0744020721   -0.1012111445
H       -5.5120410924   -0.7141327286    0.2436781550
H        1.2465301769   -4.5107529440    0.8556769816
H       -0.1774536273   -0.6036398480    1.9412256034
H       -0.5168421402   -4.4596950052    3.3308268708
H        0.1437533579   -4.9327742680    4.9100503189
H       -1.9839395033   -2.2000075702    7.3995144519
H       -0.3683660412   -2.8988714471    7.2462491696
H       -2.2560289447   -1.3334013833    3.7135880264
H       -3.1592717810   -1.4748636566    5.2225333638
H       -1.4085798155   -4.9216289989    6.9197123035
H       -2.9884675152   -4.1502672934    6.7286226653
H       -3.8347668909   -3.5484966816    4.4918531803
H       -2.6900936065   -3.5092423390    3.1480243990
H       -0.7104975527   -0.9374161232    5.6522578755
H        2.0250897297   -3.9334749338    3.2401183291
H        3.1380882138   -2.6309211048    3.6406993862
H       -2.8804371497   -0.1791203413    1.2081625987
46   

C       -5.3863092733   -3.6721587148   -0.7837700849
C       -5.8381483655   -2.3402756014   -0.7031684835
C       -4.0700476015   -3.9974745659   -0.4159003206
C       -0.9615779151   -4.0379560845    0.6063073438
C       -4.9767823824   -1.3236014143   -0.2551120680
C        0.3161437425   -3.7449786285    1.1120839290
C       -0.2673299769   -1.3965762434    1.3056896850
C       -3.2376146081   -2.9682775649    0.0251281433
C       -1.8666831709   -2.9877715071    0.4728672663
C       -3.6724548461   -1.6555576724    0.1066182239
C       -1.5297109454   -1.6895242178    0.8045435203
C        0.6664232443   -2.4283535810    1.4806846591
C       -0.0489452900   -2.8886531986    4.5496678335
C        1.1376024892   -2.3018783937    4.3357611866
C       -0.2429841769   -4.4105191697    4.6244662034
C       -1.4038172965   -2.6448374664    6.5643230121
C       -2.4743096127   -2.4935833688    4.3224135731
C       -1.7611012272   -4.1506946857    6.5272380274
C       -2.6085317514   -4.0330633775    4.2458950668
C       -1.2183197608   -2.1021637610    5.1297571372
C        2.1538400114   -2.7060121916    3.3109571513
N       -2.6277382072   -0.8497885981    0.5816834010
N       -1.6064014522   -4.6544529709    5.1440024254
O        1.8979825235   -2.1365074079    2.0149797719
F        1.3808695323   -1.1171356428    4.9491892856
H       -6.0576189568   -4.4491705489   -1.1311853856
H       -6.8555992397   -2.0968119347   -0.9882011677
H       -3.7104122106   -5.0174878566   -0.4721241983
H       -1.2395095823   -5.0484525232    0.3323178852
H       -5.3170031599   -0.2979096818   -0.1898498010
H        1.0437076299   -4.5382900817    1.2238396653
H       -0.0061690564   -0.3842300341    1.5829012496
H       -0.1379007133   -4.8517604172    3.6285240542
H        0.5088300375   -4.8591486762    5.2822439162
H       -2.1886262710   -2.0947099220    7.0924525709
H       -0.4699813266   -2.5033693168    7.1177474085
H       -2.4299808827   -2.0830350864    3.3117189070
H       -3.3582079104   -2.0697431897    4.8087525144
H       -1.1186711575   -4.7056679926    7.2189197522
H       -2.7980855744   -4.2929787353    6.8497262159
H       -3.6237911590   -4.3351929086    4.5230768666
H       -2.4347463003   -4.3652593465    3.2165923141
H       -1.0609935853   -1.0187537002    5.1269476446
H        2.1951611516   -3.7966541940    3.2414702727
H        3.1390823493   -2.3686545590    3.6461760938
H       -2.6551144037    0.1511331978    0.7371038749
46   

C       -5.3472427661   -3.5519878264   -0.8221725791
C       -5.7927880572   -2.2166305147   -0.7687252036
C       -4.0356114013   -3.8774214563   -0.4379569261
C       -0.9374913887   -3.9158217630    0.6178176256
C       -4.9298372351   -1.1966568457   -0.3313708427
C        0.3366973128   -3.6208578135    1.1319828987
C       -0.2348114498   -1.2657966137    1.2740088779
C       -3.2012246230   -2.8447944642   -0.0084613112
C       -1.8343234411   -2.8631816499    0.4522432869
C       -3.6301701899   -1.5287635108    0.0468593747
C       -1.4938937916   -1.5609036505    0.7651843086
C        0.6925835712   -2.2982262009    1.4782496024
C        0.0430136233   -2.9649977179    4.4651010520
C        1.2445504150   -2.3685617973    4.3412238226
C       -0.1409639314   -4.4843335509    4.6421720108
C       -1.3041141029   -2.5409393950    6.4654631818
C       -2.3983240915   -2.6770465488    4.2355659237
C       -1.5190767958   -4.0671507677    6.6135677001
C       -2.5459812605   -4.2056268612    4.4087912462
C       -1.1463109911   -2.1624353235    4.9761869142
C        2.2463602015   -2.6425647212    3.2573948767
N       -2.5858125998   -0.7200734377    0.5178918455
N       -1.4574548886   -4.7048355305    5.2787771213
O        1.9219546482   -1.9942633734    2.0141998999
F        1.4812193355   -1.2549916116    5.0782778640
H       -6.0199728881   -4.3315262082   -1.1610980500
H       -6.8066599250   -1.9730345890   -1.0661823286
H       -3.6811383531   -4.9001590750   -0.4729095738
H       -1.2191474347   -4.9298509086    0.3613810797
H       -5.2654346316   -0.1683490569   -0.2864547933
H        1.0556554318   -4.4184297368    1.2646761497
H        0.0288974179   -0.2496326433    1.5340451107
H       -0.1064216801   -4.9807453860    3.6670965349
H        0.6614078544   -4.8930856493    5.2653272903
H       -2.1527466700   -2.0062831563    6.9031353194
H       -0.4060860758   -2.2440393740    7.0162291406
H       -2.3273709198   -2.4404878994    3.1727945843
H       -3.2901217730   -2.1746470190    4.6223210193
H       -0.7508813121   -4.4885160002    7.2706295897
H       -2.4930610263   -4.2623108516    7.0746471097
H       -3.5214778331   -4.4387463916    4.8482871714
H       -2.4978034783   -4.6939267473    3.4294798769
H       -1.0210995626   -1.0828087761    4.8414626037
H        2.3404573256   -3.7219570413    3.1092201113
H        3.2237318885   -2.2785586195    3.5877703592
H       -2.6109219861    0.2830023286    0.6588305293
46   

C       -5.2797991967   -3.5829663042   -0.8965168561
C       -5.7592297013   -2.2659087173   -0.7550638929
C       -3.9564107879   -3.8971296742   -0.5444173959
C       -0.8503997957   -3.9215509345    0.4907970684
C       -4.9188602952   -1.2531923810   -0.2605923266
C        0.4173214652   -3.6282684207    1.0225449813
C       -0.2125278855   -1.3017668415    1.3125360971
C       -3.1446848931   -2.8718745062   -0.0574384343
C       -1.7740619144   -2.8835293210    0.3928969432
C       -3.6074040288   -1.5740146258    0.0855236007
C       -1.4659639241   -1.5959406290    0.7890211622
C        0.7418593304   -2.3208336540    1.4510497301
C        0.1448060369   -3.2150920757    4.3356657125
C        1.3819845824   -2.6619353565    4.3040454024
C       -0.1195148636   -4.7207473233    4.5593526722
C       -1.1558197790   -2.5833075559    6.3366585875
C       -2.2926462285   -2.9280657431    4.1541619858
C       -1.2072080914   -4.1020562932    6.6392699531
C       -2.5400934774   -4.3791489561    4.6220788239
C       -1.0187231198   -2.3538103942    4.8129086503
C        2.3548340569   -2.7773256081    3.1627306519
N       -2.5808191049   -0.7698614966    0.6013458373
N       -1.3527937563   -4.8495373386    5.3678843369
O        1.9636508854   -2.0152303764    2.0053895160
F        1.6681624586   -1.6915059538    5.2066214919
H       -5.9356151506   -4.3571938666   -1.2781116774
H       -6.7819899316   -2.0310064285   -1.0281279092
H       -3.5763494855   -4.9061383814   -0.6459041024
H       -1.1081203449   -4.9243993091    0.1726624673
H       -5.2808638817   -0.2392179863   -0.1471823998
H        1.1538344917   -4.4164135861    1.1046402523
H        0.0258356546   -0.2976172264    1.6358185185
H       -0.2399098785   -5.2272383893    3.5960307360
H        0.7273444259   -5.1764277020    5.0831567888
H       -2.0765600508   -2.1052832169    6.6852900018
H       -0.3231837516   -2.1316201907    6.8840146444
H       -2.1610799997   -2.9195934946    3.0715333204
H       -3.1679736124   -2.3127077927    4.3828733070
H       -0.2798307429   -4.4092578846    7.1348682806
H       -2.0348669142   -4.3217808169    7.3217157483
H       -3.4164794998   -4.4130771592    5.2780697495
H       -2.7434401888   -5.0215685129    3.7588815666
H       -0.8859523595   -1.2962480988    4.5606028001
H        2.4858856360   -3.8306914386    2.9001656747
H        3.3287628638   -2.4088224784    3.4983372148
H       -2.6313909500    0.2209704033    0.8069264744
46   

C       -5.2832453708   -3.5744554206   -1.0074382120
C       -5.7759294606   -2.2585780024   -0.9060901704
C       -3.9690086388   -3.8719424564   -0.6092971265
C       -0.8918469871   -3.8501634818    0.5124406580
C       -4.9586678864   -1.2306976293   -0.4043630756
C        0.3576527637   -3.5367848945    1.0759271874
C       -0.3039073090   -1.2137241461    1.3146844735
C       -3.1797684472   -2.8315802419   -0.1172950177
C       -1.8229180121   -2.8235716502    0.3734413451
C       -3.6566860624   -1.5353290431   -0.0111869653
C       -1.5386482380   -1.5280218482    0.7596117396
C        0.6580622217   -2.2188737647    1.4971305291
C        0.1957865204   -3.3377357618    4.3235469507
C        1.4546742719   -2.8055595559    4.3260844920
C       -0.1172228022   -4.8279850318    4.6154089422
C       -1.1138319084   -2.5772296776    6.2838672206
C       -2.2332536624   -3.0004630481    4.1115601773
C       -1.1825173283   -4.0785325237    6.6604065332
C       -2.5283464473   -4.4142189312    4.6602672709
C       -0.9493869424   -2.4269163161    4.7514875154
C        2.3655314123   -2.7264701691    3.1266233705
N       -2.6533518259   -0.7143918660    0.5233909038
N       -1.3539441259   -4.8826902172    5.4273367425
O        1.8588391656   -1.8766530859    2.0801960926
F        1.8282950280   -2.0612145559    5.3945804149
H       -5.9218023835   -4.3606351920   -1.3938294154
H       -6.7911684458   -2.0363539779   -1.2154349827
H       -3.5791716170   -4.8798609609   -0.6796453352
H       -1.1308925732   -4.8601220555    0.2022967745
H       -5.3310436662   -0.2175429580   -0.3212216082
H        1.0933259589   -4.3216303529    1.1864472192
H       -0.0853563079   -0.2017279087    1.6272604207
H       -0.2522507882   -5.3738243601    3.6758402871
H        0.7152837443   -5.2850808564    5.1606319214
H       -2.0380024546   -2.0768315295    6.5893261355
H       -0.2924607902   -2.1028308428    6.8284095823
H       -2.0890742442   -3.0585712603    3.0324066257
H       -3.0926480405   -2.3480100999    4.2932916842
H       -0.2520679680   -4.3751625193    7.1569719625
H       -2.0026959540   -4.2534365575    7.3644476440
H       -3.4007094927   -4.3807421974    5.3217198898
H       -2.7598696423   -5.0962782808    3.8355675168
H       -0.7859200910   -1.3865599599    4.4505609222
H        2.5593076841   -3.7332456746    2.7474504994
H        3.3289049728   -2.3217664794    3.4508713589
H       -2.7179399601    0.2794601643    0.7094793239
46   

C       -5.2694761003   -3.5848586767   -1.1319727193
C       -5.7795717569   -2.2733156679   -1.0671080251
C       -3.9658130528   -3.8611747369   -0.6867251121
C       -0.9250957067   -3.7851265506    0.5265312325
C       -4.9910775636   -1.2289503165   -0.5534994610
C        0.3003797537   -3.4509100074    1.1293562004
C       -0.3994932100   -1.1355261295    1.3252030672
C       -3.2048199419   -2.8045193742   -0.1850357634
C       -1.8650820478   -2.7734059272    0.3493586856
C       -3.6999268973   -1.5128983567   -0.1122190979
C       -1.6101258451   -1.4711152280    0.7310552524
C        0.5701562747   -2.1243610618    1.5532094952
C        0.2685136122   -3.4621642773    4.3326845992
C        1.5561510103   -2.9689588247    4.3254367370
C       -0.1162075126   -4.9284862906    4.6861904247
C       -0.9864472944   -2.5452888512    6.2400973270
C       -2.1487611546   -3.0257453956    4.1004676290
C       -1.1292106631   -4.0212614692    6.6943121034
C       -2.5049667463   -4.3943429937    4.7219834079
C       -0.8343942255   -2.4801495235    4.7008609342
C        2.3735513067   -2.6746544537    3.0857929940
N       -2.7250852568   -0.6736118137    0.4461113162
N       -1.3484891927   -4.8792044855    5.5053830895
O        1.7367950352   -1.7467124325    2.1875167557
F        2.1319995930   -2.6974239163    5.5201267039
H       -5.8864217220   -4.3841156330   -1.5265553139
H       -6.7862482862   -2.0673206933   -1.4134077174
H       -3.5630097154   -4.8655958823   -0.7282934637
H       -1.1408881729   -4.8010752604    0.2188315749
H       -5.3772100872   -0.2190931563   -0.4976722642
H        1.0318362979   -4.2341247737    1.2698746914
H       -0.2066829546   -0.1174529676    1.6349805425
H       -0.2842470457   -5.5062328319    3.7714033789
H        0.6953737134   -5.4021472728    5.2486384655
H       -1.8778824353   -1.9814288505    6.5318392543
H       -0.1305176087   -2.0897005154    6.7468937801
H       -2.0183970549   -3.1448676556    3.0247468096
H       -2.9748274981   -2.3250544438    4.2552832250
H       -0.2124761378   -4.3393160005    7.2031662877
H       -1.9533635054   -4.1183093952    7.4087008499
H       -3.3696904087   -4.2866096297    5.3855425295
H       -2.7748382366   -5.1054169951    3.9343066080
H       -0.6230616721   -1.4653110345    4.3477098738
H        2.6124647204   -3.6096148777    2.5732896817
H        3.3283572978   -2.2412184723    3.3979334962
H       -2.8074048328    0.3217368554    0.6164394467
