23   

C        5.6993973564    1.7608587378    0.0660408838
C        4.7725329188    2.0882222945   -0.9230965059
C        5.4847904487    0.6389035323    0.8662232841
C        3.6365486255    1.2927406435   -1.1114235844
C        4.3477248697   -0.1553046641    0.6756740191
C        3.3976863882    0.1482551491   -0.3220298855
C        1.3262222338   -0.6464066184   -1.5641558214
C        2.1983112263   -0.6870352723   -0.5130619146
C        0.1882298953   -1.5985363009   -1.3680670456
C        1.7411792988   -1.7138808513    0.5142638396
C        0.8287710744   -2.5748052606   -0.3727636322
H        6.5800789295    2.3756973910    0.2136061141
H        4.9309286557    2.9613336967   -1.5457606952
H        6.2004562962    0.3809536865    1.6385417127
H        2.9310641851    1.5779575173   -1.8811657357
H        4.2243708286   -1.0141026535    1.3211340458
H        1.4445729239   -0.0274051547   -2.4450939695
H       -0.1224886443   -2.0946541493   -2.2929400655
H       -0.6567139214   -1.0738948411   -0.9100101000
H        1.1679483844   -1.2167913548    1.3033573106
H        2.5466129073   -2.3182018669    0.9396278834
H        0.1011214956   -3.1668879196    0.1912621664
H        1.4679140273   -3.2578299740   -0.9427842877
23   

C        5.6756181455    1.7477290879    0.0683144391
C        4.6705483547    2.1526769481   -0.8113371506
C        5.5450422790    0.5414841749    0.7585641254
C        3.5390799002    1.3507647163   -0.9997260304
C        4.4122856691   -0.2589949969    0.5681426048
C        3.3879415249    0.1268787584   -0.3171525404
C        1.4054868652   -0.7569626549   -1.6275015900
C        2.1913202213   -0.7122278493   -0.5124870485
C        0.2381470250   -1.6738766915   -1.4341474935
C        1.6315449795   -1.6215807353    0.5725220574
C        0.7792904851   -2.5564619256   -0.2997478729
H        6.5530715293    2.3672722083    0.2154149231
H        4.7649719308    3.0900629645   -1.3475348159
H        6.3233019665    0.2225259855    1.4424804882
H        2.7654328665    1.6871247242   -1.6790033589
H        4.3471987252   -1.1918830065    1.1124021861
H        1.6130586324   -0.2232321239   -2.5474985816
H       -0.0065850913   -2.2541302462   -2.3293913916
H       -0.6310491598   -1.0984489303   -1.0989165174
H        1.0028670363   -1.0381473315    1.2527490716
H        2.3876342436   -2.1798390035    1.1305270442
H       -0.0024157944   -3.0830344117    0.2568648182
H        1.4501845201   -3.2982267925   -0.7465122543
23   

C        5.6701828669    1.7405596485    0.0791987821
C        4.6011183141    2.2071827493   -0.6894246785
C        5.6105415313    0.4662705312    0.6488761686
C        3.4763862531    1.3981967030   -0.8885834560
C        4.4841362409   -0.3405188702    0.4476681162
C        3.4032627972    0.1089207824   -0.3287415061
C        1.4975015901   -0.8706619976   -1.6789446517
C        2.2086362474   -0.7352390689   -0.5238182256
C        0.3017259168   -1.7490387765   -1.4777281941
C        1.5561086867   -1.5166423168    0.6072323220
C        0.7465956560   -2.5226881208   -0.2260510774
H        6.5423238315    2.3656070760    0.2343819371
H        4.6410182442    3.1968631651   -1.1299422393
H        6.4376251115    0.1009214351    1.2468606570
H        2.6483253982    1.7724566604   -1.4787031979
H        4.4566851634   -1.3278071287    0.8920890685
H        1.7785521172   -0.4233113104   -2.6254297054
H        0.1066912172   -2.4118824133   -2.3266211655
H       -0.5766284462   -1.1318414230   -1.2619026569
H        0.8949354987   -0.8562088387    1.1773164621
H        2.2677745804   -2.0159021932    1.2709740555
H       -0.0819332289   -2.9802903279    0.3237618701
H        1.4310747108   -3.3143340934   -0.5495539565
23   

C        5.6715609398    1.7309696508    0.0855138074
C        4.5437411548    2.2478638390   -0.5581389934
C        5.6755677822    0.4024647087    0.5201102939
C        3.4240556432    1.4345542003   -0.7686015091
C        4.5537781241   -0.4078175501    0.3074874361
C        3.4191384829    0.0935790363   -0.3472131755
C        1.5850809549   -0.9961407974   -1.7191114373
C        2.2247493325   -0.7562099141   -0.5408781989
C        0.3619203502   -1.8333208746   -1.5055742385
C        1.4884616942   -1.4034335867    0.6223556556
C        0.7113930414   -2.4787692527   -0.1538208888
H        6.5395796226    2.3594224319    0.2497781329
H        4.5343314536    3.2791431322   -0.8920450212
H        6.5470128567   -0.0009374129    1.0230667120
H        2.5482984628    1.8415914294   -1.2602394743
H        4.5632225553   -1.4362788515    0.6485223653
H        1.9326473746   -0.6454158774   -2.6841627593
H        0.2073091485   -2.5782282460   -2.2924681958
H       -0.5158533900   -1.1854431236   -1.4117182831
H        0.8082946616   -0.6773896854    1.0789790525
H        2.1545432526   -1.8370987830    1.3744632141
H       -0.1592438277   -2.8648643611    0.3856940798
H        1.3979500115   -3.3095645378   -0.3493926767
23   

C        5.6780295374    1.7216007916    0.0765014614
C        4.4944283013    2.2799891267   -0.4151800202
C        5.7367247020    0.3534237908    0.3582275630
C        3.3731114612    1.4688605389   -0.6258677611
C        4.6130220301   -0.4541643711    0.1454636701
C        3.4231676683    0.0917078029   -0.3552662704
C        1.6747599177   -1.1336362634   -1.7350645004
C        2.2263393877   -0.7610091579   -0.5477672208
C        0.4300909947   -1.9374597122   -1.5172705157
C        1.4050403639   -1.2720187919    0.6261761707
C        0.6749526857   -2.4265623669   -0.0790716015
H        6.5471569048    2.3483342673    0.2414628443
H        4.4433989275    3.3410987745   -0.6309535959
H        6.6514874428   -0.0824820622    0.7433380065
H        2.4542120731    1.9043347012   -1.0005944604
H        4.6600652907   -1.5135398448    0.3689064276
H        2.0979965529   -0.8976487048   -2.7047922953
H        0.3235780748   -2.7662317891   -2.2242015965
H       -0.4448013767   -1.2803756602   -1.5607545250
H        0.7013884959   -0.4986746931    0.9502373990
H        2.0164727249   -1.6183197456    1.4652522359
H       -0.2359677855   -2.7478526264    0.4358587211
H        1.3654020746   -3.2753970816   -0.1296863566
23   

C        5.6881992957    1.7088319875    0.0662560114
C        4.4587844864    2.3004188158   -0.2393655692
C        5.7850070621    0.3174797317    0.1656091521
C        3.3289180960    1.4996500358   -0.4439795983
C        4.6526357508   -0.4796598007   -0.0405735073
C        3.4149758020    0.1014554919   -0.3468766136
C        1.7770945594   -1.2719240433   -1.7288711575
C        2.2139742305   -0.7465139839   -0.5519983296
C        0.5175685660   -2.0563728796   -1.5272474104
C        1.2995216499   -1.1329829327    0.6001637133
C        0.6369502626   -2.3711730276   -0.0256699797
H        6.5640328930    2.3274154957    0.2264366657
H        4.3794637447    3.3787540534   -0.3169577710
H        6.7363048909   -0.1446769870    0.4034244938
H        2.3759635154    1.9590594384   -0.6790081220
H        4.7289213092   -1.5577848658    0.0387943600
H        2.2933580391   -1.1600649021   -2.6755302128
H        0.4725250184   -2.9631519288   -2.1385226491
H       -0.3498305840   -1.4172968158   -1.7230397841
H        0.5669035342   -0.3384715866    0.7737438485
H        1.8410254521   -1.3715415930    1.5209470188
H       -0.3147064828   -2.6416919406    0.4426553718
H        1.3312116796   -3.2112977927    0.0834878662
23   

C        5.6977408438    1.6999388612    0.0658643664
C        4.4410318195    2.3022367867   -0.0460524191
C        5.8124946867    0.3090899822   -0.0193238024
C        3.3015368006    1.5124576115   -0.2394701665
C        4.6705022629   -0.4772718282   -0.2134250088
C        3.4037715480    0.1132658971   -0.3173723764
C        1.8809370745   -1.4012976480   -1.6757065647
C        2.1991330858   -0.7226865353   -0.5393253872
C        0.6056376127   -2.1661666742   -1.5011294364
C        1.1828758464   -0.9847798282    0.5616839568
C        0.5842933609   -2.2978467954    0.0316257788
H        6.5812345170    2.3099931069    0.2164053839
H        4.3483496510    3.3805336896    0.0156242964
H        6.7856257690   -0.1611388009    0.0644122947
H        2.3287087041    1.9811667285   -0.3303740583
H        4.7621996228   -1.5549944194   -0.2810839897
H        2.4939817607   -1.4144198947   -2.5696846873
H        0.6156552538   -3.1398929763   -2.0008126287
H       -0.2377950205   -1.5623302224   -1.8520825945
H        0.4341044014   -0.1864749701    0.5714963401
H        1.6377144617   -1.1038926039    1.5501074643
H       -0.4066672179   -2.5223231493    0.4387644309
H        1.2667075304   -3.1097560072    0.3051880490
23   

C        5.6963270098    1.6885969385    0.0804818023
C        4.4270648706    2.2711502142    0.1396519709
C        5.8217821795    0.3195257327   -0.1727530316
C        3.2858875338    1.4831937795   -0.0508619532
C        4.6782941756   -0.4655573918   -0.3631008398
C        3.3980327187    0.1026655345   -0.2941189738
C        1.9634737211   -1.5244815162   -1.6064991555
C        2.1942385425   -0.7234049831   -0.5290747895
C        0.6649144930   -2.2556704732   -1.4626324730
C        1.0815261581   -0.8594184213    0.4997002853
C        0.5113487074   -2.2196775906    0.0672324305
H        6.5811702954    2.2975387290    0.2275673234
H        4.3258011859    3.3334798456    0.3302329898
H        6.8047147918   -0.1347987761   -0.2231620939
H        2.3040825380    1.9401495546   -0.0125100239
H        4.7811767809   -1.5258538400   -0.5619060859
H        2.6517283410   -1.6455701234   -2.4351994333
H        0.7010119636   -3.2780261513   -1.8517568437
H       -0.1349939029   -1.6869724480   -1.9483298430
H        0.3456982750   -0.0618841089    0.3563518625
H        1.4465395632   -0.8708133545    1.5315526796
H       -0.5139059497   -2.3927934295    0.4093265858
H        1.1562047256   -3.0002053339    0.4852174986
23   

C        5.6997494648    1.6842081661    0.0933201434
C        4.4270430265    2.2243150272    0.2965837641
C        5.8329996108    0.3521275781   -0.3078472138
C        3.2903226880    1.4312886120    0.1007393514
C        4.6942922058   -0.4386229741   -0.5031290980
C        3.4092259711    0.0860422064   -0.2939578817
C        2.0317345041   -1.6394050438   -1.5379877325
C        2.2093248496   -0.7377691223   -0.5305899238
C        0.7070559050   -2.3269029034   -1.4185475310
C        1.0170345369   -0.7455788117    0.4153739512
C        0.4458037480   -2.1329775459    0.0839006790
H        6.5809892046    2.2974761072    0.2440252384
H        4.3192538953    3.2585298429    0.6030218970
H        6.8186435691   -0.0694538326   -0.4687376974
H        2.3071915193    1.8610100966    0.2516033660
H        4.8086090986   -1.4703273695   -0.8136194298
H        2.7692436446   -1.8573294362   -2.3017824770
H        0.7436518711   -3.3839826926   -1.6999417712
H       -0.0406585725   -1.7950192251   -2.0162143471
H        0.3145459875    0.0447463911    0.1324386447
H        1.3007985756   -0.6549806427    1.4686567853
H       -0.6052392526   -2.2521341623    0.3654050787
H        1.0399669785   -2.8773713022    0.6249798712
23   

C        5.6955118368    1.6874028126    0.0982474585
C        4.4268486322    2.1644933136    0.4362795989
C        5.8336477306    0.4061335160   -0.4410771892
C        3.2988524127    1.3603006975    0.2353977367
C        4.7041444175   -0.3964035079   -0.6413273333
C        3.4209505649    0.0658961469   -0.3031922162
C        2.0812690781   -1.7512241106   -1.4635441179
C        2.2279696074   -0.7665864348   -0.5296377703
C        0.7319519329   -2.3929303303   -1.3670773704
C        0.9755226386   -0.6562886704    0.3280681760
C        0.3834629067   -2.0536108343    0.0902458782
H        6.5696768226    2.3097511953    0.2528965627
H        4.3149624775    3.1593426889    0.8520790846
H        6.8165269386    0.0323457727   -0.7044215675
H        2.3218497042    1.7497125894    0.4947643736
H        4.8304766938   -1.3891126676   -1.0554438685
H        2.8487067303   -2.0541386075   -2.1659654076
H        0.7547018504   -3.4722799939   -1.5472053297
H        0.0389100267   -1.9017910202   -2.0581972934
H        0.3178119729    0.1206134382   -0.0746216084
H        1.1898548436   -0.4751383139    1.3860988500
H       -0.6863475992   -2.1194843051    0.3122771214
H        0.9194731987   -2.7584887677    0.7350735522
23   

C        5.6944624402    1.6951665982    0.0984830368
C        4.4418851514    2.0990493629    0.5649905565
C        5.8241054243    0.4762341445   -0.5701953733
C        3.3210436618    1.2850893368    0.3627961628
C        4.7024192902   -0.3367047966   -0.7718860319
C        3.4325919138    0.0533148632   -0.3090337852
C        2.1250830037   -1.8523682900   -1.3721291608
C        2.2461631201   -0.7920407375   -0.5187855407
C        0.7534699831   -2.4491785542   -1.3092365710
C        0.9427880510   -0.5740788432    0.2370283480
C        0.3214661635   -1.9701315949    0.0837112976
H        6.5626056790    2.3255325782    0.2546049839
H        4.3364517412    3.0455387735    1.0828700566
H        6.7949863985    0.1581655552   -0.9326150069
H        2.3616372760    1.6292307671    0.7281684725
H        4.8313386250   -1.2799602004   -1.2868653694
H        2.9173784356   -2.2365023567   -2.0028640247
H        0.7548214289   -3.5407234811   -1.3899592981
H        0.1221217939   -2.0064683131   -2.0867661313
H        0.3391109176    0.1818769520   -0.2753751311
H        1.0873704393   -0.3108204438    1.2895360140
H       -0.7622043408   -1.9867920713    0.2370546107
H        0.7904097013   -2.6279804137    0.8235278352
23   

C        5.6966056769    1.7041037845    0.0908304797
C        4.4764596833    2.0273764556    0.6867902987
C        5.7967619983    0.5601637708   -0.7025982652
C        3.3582652788    1.2080694924    0.4905651557
C        4.6784319429   -0.2585827725   -0.8984995698
C        3.4395211056    0.0501590050   -0.3058373391
C        2.1689534673   -1.9406563361   -1.2599794764
C        2.2580617444   -0.8081433185   -0.4991277687
C        0.7813096302   -2.5017499390   -1.2471919142
C        0.9101780687   -0.4979625792    0.1382523226
C        0.2602352193   -1.8872101931    0.0580148687
H        6.5621486540    2.3389880676    0.2430638468
H        4.3938980675    2.9159735859    1.3022301151
H        6.7422227798    0.3050340526   -1.1675094929
H        2.4306612044    1.4995752680    0.9649610038
H        4.7884974763   -1.1391296946   -1.5175290519
H        2.9907141363   -2.3994886768   -1.7954075874
H        0.7593878913   -3.5959013622   -1.2274976810
H        0.2214221929   -2.1209164238   -2.1077536194
H        0.3672260553    0.2267770198   -0.4768879357
H        0.9769274098   -0.1590255802    1.1762347677
H       -0.8319189500   -1.8650760623    0.1276954801
H        0.6516008734   -2.4865517906    0.8872594832
23   

C        5.7168921548    1.7152512203    0.0836678878
C        4.5493707661    1.9497203194    0.8121322893
C        5.7613388615    0.6616988122   -0.8308155993
C        3.4279244986    1.1318844830    0.6278450680
C        4.6400116753   -0.1555986832   -1.0145599742
C        3.4543747442    0.0641956737   -0.2890751920
C        2.2236606113   -1.9969855901   -1.1303828446
C        2.2742189628   -0.7995502354   -0.4736592417
C        0.8300255948   -2.5409890531   -1.1709803884
C        0.8901452267   -0.4153842120    0.0318861634
C        0.2215062216   -1.7986264185    0.0256810327
H        6.5847761333    2.3489617062    0.2272205522
H        4.5109026334    2.7670184112    1.5232871393
H        6.6649814517    0.4768487575   -1.4003623106
H        2.5467635935    1.3498927750    1.2152699737
H        4.7000854035   -0.9611414269   -1.7349412027
H        3.0791043919   -2.5111635335   -1.5510962052
H        0.7882446751   -3.6278950789   -1.0486363840
H        0.3436393004   -2.2396464235   -2.1045734195
H        0.4089787020    0.2576088032   -0.6849953559
H        0.8763209056    0.0125084411    1.0375359106
H       -0.8721196814   -1.7566895092    0.0061030872
H        0.5345008512   -2.3229225446    0.9351290132
23   

C        5.7127864529    1.7107509033    0.0782410444
C        4.6058229992    1.8525697403    0.9178904831
C        5.6933546316    0.7526945614   -0.9376179768
C        3.4807989648    1.0381480536    0.7413303565
C        4.5678110147   -0.0608803171   -1.1126453331
C        3.4431219064    0.0702795317   -0.2797042664
C        2.2553919241   -2.0524995045   -0.9978206069
C        2.2651530760   -0.7983991961   -0.4587912149
C        0.8643894021   -2.5994684524   -1.0793473025
C        0.8517030630   -0.3605040485   -0.1013692837
C        0.1778982013   -1.7383604660   -0.0090642167
H        6.5841357884    2.3410983432    0.2154349035
H        4.6185987191    2.5924529301    1.7100882702
H        6.5501437312    0.6394173518   -1.5919840382
H        2.6444188480    1.1638902400    1.4160986355
H        4.5682488738   -0.7938556264   -1.9100018609
H        3.1411211421   -2.5989361408   -1.2998195955
H        0.8077994419   -3.6681926348   -0.8498260045
H        0.4456682278   -2.3959223484   -2.0704243531
H        0.4306356159    0.2277511217   -0.9229510467
H        0.7706040979    0.1842186606    0.8427201577
H       -0.9114655571   -1.7007403693   -0.1092194952
H        0.4244302655   -2.1645784844    0.9694355288
23   

C        5.7115052753    1.7078337012    0.0802361144
C        4.6688343378    1.7498690933    1.0095628231
C        5.6273211693    0.8496155600   -1.0193491393
C        3.5426793145    0.9364979462    0.8367961046
C        4.5001248542    0.0370092990   -1.1895836408
C        3.4396109017    0.0748100277   -0.2706976421
C        2.2805805985   -2.1007605920   -0.8579604714
C        2.2654581360   -0.8032193318   -0.4396165551
C        0.8913457192   -2.6460020227   -0.9791841663
C        0.8376129369   -0.3191486278   -0.2340058953
C        0.1427710618   -1.6773643063   -0.0494596141
H        6.5842880665    2.3370259867    0.2135171643
H        4.7331675019    2.4098662733    1.8671193501
H        6.4353283406    0.8124108417   -1.7410489106
H        2.7483686019    0.9698952841    1.5723192802
H        4.4439705743   -0.6243057290   -2.0460292152
H        3.1824978831   -2.6711351278   -1.0480797562
H        0.8066422002   -3.6859394649   -0.6484555375
H        0.5431669014   -2.5412530015   -2.0120508320
H        0.4849582282    0.1827945733   -1.1406523804
H        0.7092589772    0.3272242885    0.6389586405
H       -0.9366892557   -1.6448250808   -0.2279553679
H        0.3170749091   -2.0034641792    0.9816351054
23   

C        5.7094725095    1.7071545256    0.0840981536
C        4.7424740305    1.6374805375    1.0910891754
C        5.5495531127    0.9596846307   -1.0863804495
C        3.6157112069    0.8238209809    0.9242837420
C        4.4216186201    0.1465465220   -1.2499220125
C        3.4370423665    0.0768424907   -0.2538317657
C        2.2890003297   -2.1388174028   -0.7040994122
C        2.2632693699   -0.8078743272   -0.4153209700
C        0.9026995321   -2.6792187976   -0.8734248371
C        0.8345858116   -0.2877179694   -0.3678701500
C        0.1041111165   -1.6139290271   -0.1032820973
H        6.5827951034    2.3367188733    0.2119619132
H        4.8659924126    2.2108659140    2.0027329802
H        6.2995573761    1.0082753551   -1.8675601835
H        2.8738214118    0.7655445088    1.7119022173
H        4.3037492481   -0.4333143310   -2.1577897217
H        3.1949515904   -2.7298544843   -0.7753696404
H        0.7757607946   -3.6797094044   -0.4480969408
H        0.6331071798   -2.6755775899   -1.9347157885
H        0.5595572667    0.1265360394   -1.3430760441
H        0.6630351210    0.4446012106    0.4269514691
H       -0.9584351543   -1.5883559808   -0.3649922903
H        0.1956414798   -1.8371334499    0.9651954494
23   

C        5.7080369532    1.7065508691    0.0895041662
C        4.8296341224    1.5049127349    1.1582984185
C        5.4626913914    1.0858098041   -1.1390748777
C        3.7061961241    0.6858448357    0.9954004053
C        4.3382365321    0.2668802577   -1.2978912225
C        3.4445102499    0.0644123029   -0.2375125344
C        2.2779807043   -2.1739073019   -0.5322436334
C        2.2654146535   -0.8187333144   -0.4041561714
C        0.8940528902   -2.7035738661   -0.7488366865
C        0.8530743617   -0.2675306500   -0.5254935841
C        0.0687921706   -1.5410633575   -0.1701631845
H        6.5783960507    2.3409284104    0.2137214459
H        5.0185828937    1.9811129994    2.1136265880
H        6.1432707978    1.2376086096   -1.9690624392
H        3.0289741342    0.5264152464    1.8262715541
H        4.1517990725   -0.2152591189   -2.2503809578
H        3.1707196925   -2.7846977457   -0.4604121618
H        0.7067267312   -3.6458589335   -0.2244560941
H        0.7068964913   -2.8169742486   -1.8217720865
H        0.6625896173    0.0384397819   -1.5590807832
H        0.6474204127    0.5539236005    0.1678705327
H       -0.9698220790   -1.5261457516   -0.5154363743
H        0.0728738111   -1.6410654121    0.9206159012
23   

C        5.7076171507    1.7144289560    0.0998358606
C        4.9332126597    1.3508175237    1.2056463058
C        5.3667235332    1.2452789686   -1.1724489481
C        3.8195270993    0.5196815908    1.0366584415
C        4.2523668610    0.4137372743   -1.3367615035
C        3.4681396699    0.0426152271   -0.2364538470
C        2.2543455130   -2.1909800677   -0.3550417990
C        2.2821843361   -0.8317888254   -0.4169077549
C        0.8711433751   -2.7076276199   -0.6044457504
C        0.9008259448   -0.2623437947   -0.7007623089
C        0.0502587480   -1.4577567457   -0.2411229623
H        6.5699324139    2.3588255870    0.2284970246
H        5.1939826443    1.7125259828    2.1937164083
H        5.9643722195    1.5256248291   -2.0322959066
H        3.2189231961    0.2392600271    1.8940335848
H        3.9890906137    0.0521367870   -2.3238617260
H        3.1147623160   -2.8085014713   -0.1236131360
H        0.6138724092   -3.5685215341    0.0205466270
H        0.7555992174   -2.9543146574   -1.6650665920
H        0.7866195256   -0.0864983899   -1.7750711617
H        0.6825267054    0.6468638028   -0.1318440636
H       -0.9614974895   -1.4609616399   -0.6588503386
H       -0.0228596560   -1.4141116467    0.8508816944
23   

C        5.6938893148    1.7221813174    0.1126458485
C        5.0278065552    1.1937305111    1.2223676131
C        5.2551746586    1.4064478369   -1.1767502929
C        3.9263489223    0.3491941337    1.0401660595
C        4.1534092846    0.5609258352   -1.3541058331
C        3.4830149147    0.0170012399   -0.2500041438
C        2.2148748779   -2.1854663082   -0.1908446029
C        2.2960650298   -0.8501953583   -0.4424731742
C        0.8348919607   -2.6969536552   -0.4664805998
C        0.9529046346   -0.2895329777   -0.8851059800
C        0.0357515734   -1.3896023761   -0.3263806754
H        6.5464276276    2.3773643431    0.2515979154
H        5.3618390909    1.4395864681    2.2239122402
H        5.7663698236    1.8176718960   -2.0397046645
H        3.4064264804   -0.0538880953    1.9013590108
H        3.8126093047    0.3219730529   -2.3546665747
H        3.0317035017   -2.7836292175    0.1966701117
H        0.5084571747   -3.4608009088    0.2461943323
H        0.7806811063   -3.0787906494   -1.4913833903
H        0.9077344179   -0.2569456535   -1.9782386018
H        0.7325375452    0.6934006649   -0.4569137638
H       -0.9480514544   -1.4234869193   -0.8050611977
H       -0.1023546408   -1.1972540159    0.7430465560
23   

C        5.6848416396    1.7296969490    0.1233474699
C        5.1235031239    1.0580207819    1.2131271731
C        5.1450878349    1.5543131133   -1.1541873274
C        4.0265358129    0.2095543460    1.0225660558
C        4.0481662118    0.7045173297   -1.3407049701
C        3.4840031792    0.0134044768   -0.2588623392
C        2.1725681030   -2.1473446104   -0.0538494178
C        2.3008388837   -0.8513616009   -0.4529803963
C        0.8036335322   -2.6695624678   -0.3619709014
C        0.9990084558   -0.3301332469   -1.0435278310
C        0.0248294965   -1.3446285978   -0.4235553037
H        6.5339392672    2.3878567494    0.2691299183
H        5.5348516841    1.1964397387    2.2064782832
H        5.5742371173    2.0778505982   -2.0008605302
H        3.5874025848   -0.3011650776    1.8714739115
H        3.6305470279    0.5762389507   -2.3323552143
H        2.9465531384   -2.7073632901    0.4584133201
H        0.4160278654   -3.3427683167    0.4090664247
H        0.8083211830   -3.1649478953   -1.3385598838
H        1.0230855488   -0.4249023366   -2.1337055710
H        0.7717696755    0.6988469355   -0.7474204525
H       -0.9271554601   -1.4199005411   -0.9585311078
H       -0.1763065564   -1.0283415900    0.6056653350
23   

C        5.6774246193    1.7328810693    0.1308238059
C        5.2133494055    0.9470822022    1.1890233703
C        5.0384728278    1.6731344021   -1.1105864805
C        4.1142715815    0.1004074410    1.0029612280
C        3.9396844419    0.8250702362   -1.2935447730
C        3.4691876097    0.0196370864   -0.2447253227
C        2.1193854168   -2.1010672430    0.0761527080
C        2.2924859941   -0.8486042713   -0.4338548388
C        0.7700216057   -2.6447199315   -0.2779066606
C        1.0423499095   -0.3878491906   -1.1694172031
C        0.0136351814   -1.3289580221   -0.5234040249
H        6.5283497510    2.3893748490    0.2734336720
H        5.7020795237    0.9953154219    2.1554244283
H        5.3928394909    2.2845256415   -1.9326236158
H        3.7540556397   -0.4964552879    1.8323512419
H        3.4504707969    0.7878605798   -2.2595922217
H        2.8474142101   -2.6176129601    0.6909370487
H        0.3205792890   -3.2376276255    0.5248466865
H        0.8384714991   -3.2329366302   -1.1990355591
H        1.1445325560   -0.5949785576   -2.2393767396
H        0.8041138329    0.6667034772   -0.9981697650
H       -0.8992543669   -1.4514911683   -1.1148012304
H       -0.2549932149   -0.9111338919    0.4529065527
23   

C        5.7066070974    1.7344713451    0.0554153789
C        5.0126413167    1.7597788250   -1.1563142409
C        5.2404619582    0.9387325048    1.1043296787
C        3.8531983778    0.9920259600   -1.3164087780
C        4.0804720240    0.1720528891    0.9418624039
C        3.3636531262    0.1897129285   -0.2672796349
C        1.1072679117   -0.3854097687   -1.2761537354
C        2.1527460967   -0.6308468774   -0.4338707671
C        0.0731849520   -1.4643025171   -1.1844702681
C        1.9406126267   -1.9410672215    0.3108802689
C        0.9383977575   -2.6116742220   -0.6407799421
H        6.6047421856    2.3286500698    0.1807175906
H        5.3734170227    2.3722755549   -1.9747305268
H        5.7770814095    0.9147832001    2.0459234321
H        3.3337802401    1.0149988350   -2.2664832613
H        3.7332199168   -0.4361929364    1.7682374246
H        1.0433350600    0.4620203763   -1.9484087235
H       -0.3804293995   -1.7089964274   -2.1500384211
H       -0.6958556251   -1.1784497625   -0.4591919813
H        1.4824735277   -1.7435661807    1.2852623066
H        2.8571607452   -2.5288563110    0.4232762553
H        0.3593797484   -3.4139122567   -0.1725034171
H        1.5033295791   -3.0311579726   -1.4803374569
23   

C        5.7048966166    1.7426274875    0.0600134991
C        4.9433330322    1.8733355864   -1.1021362875
C        5.3141419357    0.8323379044    1.0430839774
C        3.7936892227    1.0947467247   -1.2794182368
C        4.1639227716    0.0548802042    0.8638697298
C        3.3793782981    0.1687438242   -0.3003233518
C        1.1705525355   -0.4697521857   -1.3877273670
C        2.1709597129   -0.6530664534   -0.4754842674
C        0.1036423752   -1.5100646001   -1.2429198691
C        1.8821376580   -1.8757538466    0.3841812108
C        0.9069160173   -2.6155683775   -0.5433369747
H        6.5954229064    2.3452484693    0.1986123669
H        5.2431615238    2.5778892321   -1.8694861132
H        5.9013002705    0.7281939670    1.9483787824
H        3.2256186450    1.2113200043   -2.1933920501
H        3.8831975981   -0.6359611931    1.6489700861
H        1.1499631695    0.3101773328   -2.1390272458
H       -0.3081864962   -1.8406927766   -2.2015990684
H       -0.6921578298   -1.1346348075   -0.5910716676
H        1.3855856466   -1.5687811599    1.3102734437
H        2.7704790411   -2.4781626272    0.5985055197
H        0.2828689415   -3.3511860428   -0.0260669374
H        1.4985230647   -3.1325714930   -1.3066862763
23   

C        5.6943812215    1.7498735494    0.0640521945
C        4.8543249268    1.9845660966   -1.0241475591
C        5.3887258539    0.7273103173    0.9618744999
C        3.7135819957    1.1960431672   -1.2138379133
C        4.2472105921   -0.0599882916    0.7702199945
C        3.3840991549    0.1506362763   -0.3256557798
C        1.2338053530   -0.5616112132   -1.4900647779
C        2.1803592564   -0.6780998488   -0.5108310367
C        0.1312152046   -1.5572428446   -1.3067203959
C        1.8152727150   -1.8086268234    0.4413892663
C        0.8612600907   -2.6072550942   -0.4592798332
H        6.5782584395    2.3598808010    0.2125454360
H        5.0848390390    2.7795819724   -1.7241028447
H        6.0356072921    0.5429052376    1.8120069280
H        3.0827007337    1.4059253005   -2.0675242715
H        4.0440183673   -0.8354464801    1.4969281601
H        1.2702646081    0.1421470271   -2.3122579066
H       -0.2371801045   -1.9704890607   -2.2509401766
H       -0.6876175786   -1.1007060455   -0.7409033437
H        1.2887486861   -1.4043502341    1.3118806327
H        2.6674762502   -2.4218511304    0.7489227557
H        0.1883605026   -3.2701916922    0.0937762522
H        1.4721971285   -3.2144069746   -1.1360694575
