19   

C        5.6932583491    1.6988650197    0.7937901986
C        4.4444895173    1.8922222719    0.2899219580
C        5.3732873779    0.0755162514   -0.6115990430
C        4.9166906812   -1.4365495204   -2.4760919078
C        4.0965899453   -0.4281260305   -3.2747121598
C        6.6449919160   -2.0267880790   -0.8312337042
N        6.2426613003    0.5560264140    0.2393307747
N        4.2239939830    0.8639724323   -0.6137662598
N        5.6143152192   -1.1089326371   -1.3224836136
O        4.9361914834   -2.5756203117   -2.9329356719
H        6.1783293170    2.3383915861    1.5221225917
H        3.7669567041    2.6907615137    0.5696051746
H        3.9490832230   -0.7739636654   -4.3016198883
H        4.5021733363    0.5838111297   -3.2004387786
H        3.0979273635   -0.3904987732   -2.8342249363
H        6.3421383838   -2.3833033990    0.1584533319
H        7.5566266400   -1.4798704149   -0.5704546738
H        6.8443279869   -2.8760074117   -1.4924186697
H        3.3807239630    0.6743002374   -1.1422638458
19   

C        5.5840418980    1.8672254274    0.8676392792
C        4.3115660801    1.9507643810    0.3920841548
C        5.3624324283    0.1998571563   -0.5022440921
C        4.8780776198   -1.4233730131   -2.2495734966
C        4.0633739790   -0.4795475920   -3.1278603027
C        6.7439391231   -1.8383280301   -0.7033787438
N        6.2122653510    0.7643818516    0.3155471131
N        4.1526054791    0.8920319302   -0.4892571414
N        5.6782826483   -0.9723307117   -1.2065249782
O        4.7801427372   -2.6183592180   -2.5110049425
H        6.0329069064    2.5552577154    1.5747910400
H        3.5786744919    2.6977472016    0.6747765595
H        3.9992339299   -0.8816819366   -4.1426641709
H        4.4104814033    0.5556998647   -3.0838402229
H        3.0248117490   -0.5262887196   -2.7923077511
H        6.3873797761   -2.2954525366    0.2253334807
H        7.6030454543   -1.2596854915   -0.3497178436
H        7.0118252894   -2.6435980306   -1.3949647407
H        3.3159476258    0.6268456683   -0.9959932368
19   

C        5.5880846630    1.8985554264    0.8617686982
C        4.2964240719    1.9089961768    0.4313663646
C        5.4151098978    0.2256854549   -0.5053914305
C        4.8711577468   -1.4411266316   -2.1636188214
C        4.0915044543   -0.5355333918   -3.1102414990
C        6.8454339126   -1.7758612816   -0.7223685127
N        6.2608901568    0.8367313928    0.2819409222
N        4.1676677972    0.8452011419   -0.4489549185
N        5.7751718560   -0.9236080095   -1.2311708678
O        4.6331686674   -2.6415839076   -2.2340100888
H        6.0204322096    2.6093348208    1.5566458336
H        3.5316326105    2.6112491651    0.7427816581
H        4.1287269059   -0.9675321883   -4.1138817104
H        4.4179568884    0.5073030429   -3.0878515115
H        3.0261212618   -0.6392887478   -2.8910236302
H        6.4917168287   -2.2311893663    0.2085394031
H        7.7055824571   -1.1887257445   -0.3855508164
H        7.1026480943   -2.5888208543   -1.4089484842
H        3.3308492685    0.5326800548   -0.9283871528
19   

C        5.5870944739    1.8281482114    0.8928249345
C        4.2798781710    1.8749532175    0.5135305108
C        5.3471178713    0.2494919533   -0.5699617350
C        4.6429329038   -1.3052398148   -2.2444158041
C        3.9662261925   -0.3481652266   -3.2173765957
C        6.6817501008   -1.7900036050   -0.9227561095
N        6.2290811790    0.8022870387    0.2202130948
N        4.1080253753    0.8720194866   -0.4288340453
N        5.6677691131   -0.8520849436   -1.3887237520
O        4.1975095308   -2.4435198834   -2.1805191631
H        6.0511937996    2.4894282158    1.6155242922
H        3.5334179125    2.5596556189    0.8994922963
H        4.0938196948   -0.7582567052   -4.2225777173
H        4.3522542426    0.6732273043   -3.1648770991
H        2.8811826275   -0.4240168440   -3.1119564467
H        6.3179845679   -2.2428053360    0.0057235553
H        7.5905021560   -1.2710378540   -0.6018144673
H        6.8618257214   -2.5998424630   -1.6368468674
H        3.2509912664    0.5945828118   -0.8946625570
19   

C        5.6169186636    1.8366242011    0.8640555761
C        4.2929084466    1.8414750243    0.5436302130
C        5.3603596102    0.2449684055   -0.5795970216
C        4.5605545391   -1.3186584418   -2.1670368232
C        3.9584929910   -0.4345088951   -3.2495875156
C        6.6709341202   -1.7996562574   -0.9348550707
N        6.2604555443    0.8279038409    0.1669875415
N        4.1098678193    0.8298268476   -0.3873267046
N        5.6770593074   -0.8496166292   -1.4150290401
O        3.9705948559   -2.3516530787   -1.8858742668
H        6.0917727344    2.5152169476    1.5633204391
H        3.5432204250    2.5032936715    0.9617784747
H        4.2588984790   -0.8659937336   -4.2077868211
H        4.3368175638    0.5907579194   -3.2213472400
H        2.8706443835   -0.5364989784   -3.2763119883
H        6.3060031854   -2.2249680735    0.0062616203
H        7.5984812244   -1.2949931310   -0.6463553430
H        6.8197733501   -2.6291328475   -1.6331745649
H        3.2418887989    0.5191911652   -0.8110827515
19   

C        5.3806107970    1.5835416212    0.9277694455
C        4.0299564080    1.5967874045    0.7378550836
C        4.9345603535   -0.1842832973   -0.2290727010
C        4.0964539167   -1.4620856498   -2.0321278832
C        4.5362943988   -1.1926533548   -3.4620979770
C        6.3987560435   -1.8955710189   -1.1565997513
N        5.9273995281    0.4621885581    0.3235153494
N        3.7276075900    0.4661507392   -0.0071790216
N        5.0462206217   -1.3963375084   -0.9376130915
O        2.9913703967   -1.9307127146   -1.8440063064
H        5.9416538475    2.3342759490    1.4726238940
H        3.3419846960    2.3435587909    1.1171911356
H        5.1752181423   -2.0194261413   -3.7804326827
H        5.2098129661   -0.3322030088   -3.4953749076
H        3.6830641916   -1.1336092487   -4.1430920127
H        6.9322849710   -1.9996898816   -0.2059743528
H        6.9723907505   -1.1379930016   -1.7014921589
H        6.4051812643   -2.8127219693   -1.7536585096
H        2.8226541093    0.1144532679   -0.3128844153
19   

C        5.4550766502    1.6994534680    1.1008452367
C        4.1059504686    1.7455854252    0.9054108572
C        4.9817401502   -0.0178923634   -0.1203545616
C        4.0961799830   -1.3096867484   -1.9090743072
C        4.4989609016   -1.3981006503   -3.3733417397
C        6.4276859339   -1.7191722170   -1.1087530315
N        5.9839728430    0.5901054099    0.4591970624
N        3.7874591638    0.6478095375    0.1193952708
N        5.0813666212   -1.2066627918   -0.8747583365
O        2.9405227524   -1.5771159500   -1.6213254392
H        6.0275700902    2.4194073134    1.6745482874
H        3.4296629191    2.4917721899    1.3060469226
H        4.9659993669   -2.3717673338   -3.5374472726
H        5.3009771741   -0.6888244749   -3.5934887829
H        3.6306650621   -1.3245638028   -4.0336406470
H        6.9817756699   -1.8046618705   -0.1679865364
H        6.9924167301   -0.9710877437   -1.6755186529
H        6.4256551450   -2.6449986298   -1.6917730061
H        2.8808818971    0.3196728828   -0.2096277484
19   

C        5.4762258467    1.6634481107    1.2578721102
C        4.1333754170    1.7512829588    1.0370958866
C        4.9988616880    0.0445760554   -0.0923241671
C        4.1121311346   -1.2190488885   -1.9218711512
C        4.4692235022   -1.5536615840   -3.3632445256
C        6.4534973135   -1.6113297364   -1.1599582991
N        5.9985090030    0.5913596891    0.5505477815
N        3.8139549213    0.7177952450    0.1690848479
N        5.1095229229   -1.0878165116   -0.9286517277
O        2.9308420519   -1.3103564484   -1.6040316861
H        6.0491630219    2.3293624378    1.8930809896
H        3.4617297189    2.4819862146    1.4723593174
H        4.7755398831   -2.6018047992   -3.3965459090
H        5.3598373127   -1.0068390999   -3.6830788491
H        3.6049947278   -1.4448194639   -4.0240364790
H        6.9995217076   -1.7209811351   -0.2169446534
H        7.0310080241   -0.8496583942   -1.6948012617
H        6.4582704708   -2.5198580924   -1.7690989588
H        2.9123701492    0.4291936768   -0.2091113325
19   

C        5.4768690915    1.5961194353    1.3806817959
C        4.1395345998    1.7182390833    1.1460441329
C        5.0035037291    0.0884007536   -0.0974115213
C        4.1268874998   -1.1481314393   -1.9718924009
C        4.4380506085   -1.6601636173   -3.3721722836
C        6.4770340889   -1.5041312956   -1.2420789629
N        5.9979014817    0.5743387045    0.6015718863
N        3.8242373575    0.7574122309    0.1973039620
N        5.1323807022   -0.9753308119   -1.0157764821
O        2.9373507385   -1.0866521317   -1.6585741076
H        6.0471818764    2.2043577014    2.0734700400
H        3.4689525528    2.4238273319    1.6222898006
H        4.6957990950   -2.7188479139   -3.2911963602
H        5.3493330349   -1.2011672948   -3.7636920932
H        3.5697350575   -1.5770825238   -4.0313809920
H        7.0151421417   -1.6339376504   -0.2970495685
H        7.0637769545   -0.7293831288   -1.7471401146
H        6.4946872123   -2.3967102714   -1.8735350664
H        2.9287944656    0.5102099369   -0.2235674869
19   

C        5.4666468160    1.5451398546    1.4635343889
C        4.1306809342    1.6814624865    1.2317864944
C        5.0025798761    0.1387882149   -0.1175211257
C        4.1332255639   -1.0898058520   -2.0166086406
C        4.3993313114   -1.7503404244   -3.3638177098
C        6.5008526110   -1.3796550217   -1.3312951809
N        5.9923564723    0.5802218607    0.6179959865
N        3.8224254510    0.7865687059    0.2187980655
N        5.1519447675   -0.8567666889   -1.1037988212
O        2.9480130095   -0.8983332830   -1.7273491415
H        6.0332236323    2.1052180266    2.1986978395
H        3.4568062563    2.3541106821    1.7491708076
H        4.6682286465   -2.7934781646   -3.1807020148
H        5.3001662335   -1.3392548863   -3.8262535975
H        3.5156761773   -1.7250134126   -4.0072504416
H        7.0350124016   -1.5263506539   -0.3864951519
H        7.0895932732   -0.5881439507   -1.8069871832
H        6.5368564887   -2.2567197158   -1.9826265976
H        2.9318633494    0.5706495117   -0.2293816011
19   

C        5.4584003279    1.5145167788    1.5655984672
C        4.1221812907    1.6536459611    1.3392194555
C        5.0128609120    0.2138161471   -0.1109250720
C        4.1515105607   -0.9993405249   -2.0336739426
C        4.3819456442   -1.7848991098   -3.3196215068
C        6.5366580982   -1.2206214040   -1.3932681350
N        5.9957253843    0.6160896418    0.6565811623
N        3.8263582716    0.8267129016    0.2667565524
N        5.1822652391   -0.7089122115   -1.1610748494
O        2.9780470428   -0.6921054229   -1.7921698050
H        6.0175885653    2.0279201251    2.3394786828
H        3.4405251755    2.2853994442    1.8963811036
H        4.6899240451   -2.7985706659   -3.0518298603
H        5.2581255118   -1.4017106782   -3.8485383674
H        3.4814036896   -1.8244365654   -3.9385052296
H        7.0709544575   -1.3818724392   -0.4509615418
H        7.1219731788   -0.4131573382   -1.8454519637
H        6.5906327359   -2.0826492064   -2.0623769533
H        2.9414712677    0.6392888534   -0.2051999095
19   

C        5.4752880861    1.2645264989    1.7897948597
C        4.1454590664    1.4152060020    1.5378978764
C        5.0971971470    0.1444168325   -0.0302803070
C        4.2625541102   -0.9875234416   -2.0191965860
C        4.4823760061   -1.8646360957   -3.2477471263
C        6.6528798895   -1.1580457914   -1.4341633727
N        6.0497479875    0.4731633202    0.8073399581
N        3.8927697375    0.7026409022    0.3762305781
N        5.2977519809   -0.6613313039   -1.1682437690
O        3.1025830129   -0.5960474729   -1.8377541648
H        6.0050898575    1.6972473578    2.6307645289
H        3.4402169291    1.9810915958    2.1350199438
H        5.0189000649   -2.7741298997   -2.9676643212
H        5.1995563187   -1.3721735123   -3.9087569460
H        3.5461556264   -2.0731777428   -3.7727193852
H        7.4204646560   -0.7790874115   -0.7523819714
H        6.9268389526   -0.9854249993   -2.4789839089
H        6.6416064807   -2.2516963089   -1.3983230828
H        3.0257602850    0.5633023582   -0.1433758141
19   

C        5.3546314682    1.1771683068    1.8174967365
C        4.0209571327    1.3247644728    1.5816372407
C        4.9862431872    0.1951018818   -0.0800861869
C        4.1543070336   -0.9131748721   -2.0775427053
C        4.3421585618   -1.9011031206   -3.2232044076
C        6.5748993137   -0.9714587541   -1.5421488349
N        5.9389229982    0.4739710314    0.7752273377
N        3.7736869638    0.6981626385    0.3701333782
N        5.2061978404   -0.5191733798   -1.2733950754
O        3.0174366820   -0.4424698669   -1.9521385410
H        5.8803198494    1.5528200108    2.6879580215
H        3.3100910212    1.8349536323    2.2208349988
H        4.9351818396   -2.7579025805   -2.8938067615
H        4.9886162198   -1.4384474096   -3.9729578827
H        3.3885371589   -2.1803689618   -3.6794646712
H        7.3112781275   -0.2234267955   -1.2296807724
H        6.7459106865   -1.3330150169   -2.5588555798
H        6.7921738016   -1.7953844425   -0.8543798949
H        2.9084223921    0.5911992507   -0.1597432839
19   

C        5.3372550775    1.0753758876    1.8018247429
C        4.0036567803    1.2194148336    1.5612530173
C        5.0021074956    0.2158470596   -0.1582102332
C        4.1709624511   -0.8656190422   -2.1609692745
C        4.3414866284   -1.9599670934   -3.2076024076
C        6.6046561247   -0.8585392056   -1.6750446176
N        5.9431330742    0.4520497082    0.7216627076
N        3.7769038975    0.6700955595    0.3087208890
N        5.2372883385   -0.4140378111   -1.3967054875
O        3.0677007869   -0.3118116205   -2.1254978946
H        5.8481870949    1.4000535051    2.7010996216
H        3.2799832364    1.6797571073    2.2235457978
H        4.9639262511   -2.7714862387   -2.8224333187
H        4.9413949306   -1.5538331771   -4.0256064466
H        3.3788483778   -2.2876467855   -3.6094075017
H        7.3391547378   -0.1173455681   -1.3424203492
H        6.7672092203   -1.1883520276   -2.7043991090
H        6.8203447157   -1.7065287543   -1.0164270158
H        2.9196317356    0.5949721297   -0.2390274306
19   

C        5.3150476353    0.9818036436    1.8228273130
C        3.9836013972    1.1273100642    1.5688874373
C        5.0216269830    0.2491359760   -0.1919560992
C        4.1908817053   -0.8063693267   -2.1929669566
C        4.3484148715   -2.0071048764   -3.1166484747
C        6.6375938416   -0.7312661312   -1.7558609879
N        5.9466642027    0.4377654797    0.7148435180
N        3.7825187931    0.6582862880    0.2795995078
N        5.2720326134   -0.2919774950   -1.4709403050
O        3.1267624859   -0.1904223802   -2.2653429500
H        5.8068754736    1.2525040398    2.7501854620
H        3.2449827425    1.5390066339    2.2465998860
H        4.9824210737   -2.7716822440   -2.6607325822
H        4.9200160625   -1.6840559373   -3.9899864112
H        3.3795623077   -2.3723940175   -3.4678131352
H        7.3703343055    0.0046678056   -1.4080332126
H        6.7911797614   -1.0333168873   -2.7955361664
H        6.8517443745   -1.5994627210   -1.1234350184
H        2.9352804082    0.6184174127   -0.2866741948
19   

C        5.2695828236    0.8514393682    1.8372359536
C        3.9460585469    1.0213795989    1.5559663139
C        5.0321349936    0.2690784028   -0.2306364137
C        4.2096191696   -0.7350090991   -2.2420359946
C        4.3493126873   -2.0412576408   -3.0109567855
C        6.6650808185   -0.6170258642   -1.8262450424
N        5.9323096920    0.3871246146    0.7113292534
N        3.7795594702    0.6484762150    0.2305256135
N        5.3026255423   -0.1718376363   -1.5445324477
O        3.1997644851   -0.0703575430   -2.4500358144
H        5.7347092539    1.0519417992    2.7956958487
H        3.1904176967    1.3887242777    2.2404767159
H        4.9535260571   -2.7614237972   -2.4534739966
H        4.9384872455   -1.8387524552   -3.9084071932
H        3.3762888231   -2.4178054748   -3.3377897873
H        7.3986284279    0.1088626611   -1.4595927102
H        6.8161918610   -0.8907704735   -2.8744503053
H        6.8685381324   -1.5049671094   -1.2180606974
H        2.9477433547    0.6614788998   -0.3586160826
19   

C        5.2034791724    0.6961268416    1.7954444880
C        3.8914281431    0.9009970038    1.4839804614
C        5.0275299842    0.2598372261   -0.3124920045
C        4.2258887271   -0.7005713289   -2.3340042161
C        4.3334117920   -2.1165686122   -2.8794635740
C        6.6847552477   -0.5341993052   -1.9204475085
N        5.8983245052    0.3025366328    0.6621404143
N        3.7630159478    0.6219097365    0.1312115978
N        5.3228605458   -0.0853243407   -1.6489074038
O        3.2847938943   -0.0186872719   -2.7070836215
H        5.6387362312    0.8251234312    2.7798880093
H        3.1186945843    1.2317812746    2.1681834801
H        4.8244052342   -2.7700198725   -2.1537255664
H        5.0283077730   -2.1027913898   -3.7220801990
H        3.3687797747   -2.4813598655   -3.2424405659
H        7.4166791999    0.1801966091   -1.5289230187
H        6.8414494713   -0.7746702529   -2.9762364161
H        6.8744098043   -1.4442637164   -1.3411518719
H        2.9485312868    0.6914584674   -0.4767332079
19   

C        5.1706289334    0.5529243526    1.7597198195
C        3.8687232795    0.7939824360    1.4319227868
C        5.0420929564    0.2670736475   -0.3766954571
C        4.2682730954   -0.6372355837   -2.4185950805
C        4.3001343616   -2.1340076296   -2.6821797491
C        6.7241756838   -0.4222364550   -1.9981798085
N        5.8890654443    0.2320237342    0.6185025775
N        3.7695314439    0.6118717755    0.0601207472
N        5.3609683067    0.0182893626   -1.7258755264
O        3.4186085757    0.0309625802   -2.9735878693
H        5.5826772750    0.6080674588    2.7609279468
H        3.0836982629    1.0864117802    2.1197390601
H        4.6723080236   -2.6666650601   -1.8030513857
H        5.0679966647   -2.3273525807   -3.4346088016
H        3.3435107443   -2.4964762326   -3.0678330636
H        7.4501655420    0.2925946700   -1.5967646330
H        6.8799470155   -0.6403280603   -3.0592439666
H        6.9184622186   -1.3419913881   -1.4358735677
H        2.9676715112    0.7383213708   -0.5539760179
19   

C        4.9372424961    2.1303561190   -0.1062189273
C        4.7529511078    1.4230889556    1.0426757205
C        5.1177616214    0.0444428457   -0.6672679184
C        5.7124102520   -0.9309080220   -2.7453680323
C        4.7849382797   -0.2760238437   -3.7589119081
C        5.8038931943   -2.3112598608   -0.6872026425
N        5.1447230988    1.2561636129   -1.1588672898
N        4.8698493200    0.0831812485    0.7014151020
N        5.2667211792   -1.1554139043   -1.3916762686
O        6.8553095542   -1.1594481910   -3.0880408056
H        4.9192110092    3.2113452416   -0.1856796778
H        4.5490906086    1.8461522011    2.0195080963
H        4.5426414594   -1.0271566059   -4.5137621390
H        5.3381521193    0.4616010478   -4.3452955837
H        3.8637158787    0.1006151431   -3.3077329241
H        5.2358467350   -2.5354694280    0.2200966203
H        6.8075276530   -2.0544775450   -0.3300619468
H        5.9173058973   -3.1737687269   -1.3521077433
H        4.7725509342   -0.7280832920    1.3003719063
19   

C        4.8842856008    2.1400432569   -0.0516996385
C        4.7209477275    1.4589158351    1.1153121703
C        5.0646169944    0.0412093625   -0.5683748920
C        5.4870645023   -1.0393651131   -2.6408472350
C        4.5373513195   -0.2743715072   -3.5541807774
C        5.8080089257   -2.3129721426   -0.5409933002
N        5.0794347647    1.2420969771   -1.0865302297
N        4.8413658421    0.1123705918    0.8029666862
N        5.2177708303   -1.1844291132   -1.2487409941
O        6.5081482645   -1.4759734609   -3.1421967057
H        4.8611552653    3.2188449486   -0.1553600644
H        4.5281755343    1.9036314007    2.0847326020
H        4.4243982804   -0.8116876631   -4.4986331428
H        5.0525808132    0.6315048025   -3.8837027985
H        3.5931180979   -0.0200560207   -3.0662525197
H        5.3548859288   -2.4693025774    0.4418313734
H        6.8528008165   -2.0616244409   -0.3269601553
H        5.8344022901   -3.2139522380   -1.1627031957
H        4.7570133038   -0.6854970307    1.4215530526
19   

C        4.8504303279    2.1885595685   -0.0862853406
C        4.6921396620    1.5179412628    1.0869550646
C        5.1004929354    0.0890558059   -0.5739627735
C        5.4538992916   -1.0894995590   -2.6320257115
C        4.5420550225   -0.2483123096   -3.5188766857
C        5.8967068330   -2.2594314376   -0.5023764387
N        5.0873874470    1.2834596407   -1.1060767220
N        4.8598356247    0.1722934899    0.7937534063
N        5.3086192285   -1.1404011529   -1.2294830948
O        6.3332242986   -1.7188285557   -3.2004674808
H        4.7962105818    3.2647533234   -0.2041559575
H        4.4714570104    1.9687762807    2.0475382553
H        4.4060765989   -0.7268496114   -4.4916402736
H        5.0887486629    0.6636757136   -3.7721069824
H        3.6175232904    0.0424680154   -3.0139536654
H        5.5323897379   -2.3390127042    0.5253353561
H        6.9689867266   -2.0565136314   -0.4053099759
H        5.8376551626   -3.1926042349   -1.0722726014
H        4.7923249628   -0.6197298663    1.4218025937
19   

C        4.8596367164    2.0590348943   -0.1107830266
C        4.7269174305    1.4055268784    1.0745880378
C        5.1283740703   -0.0457872463   -0.5702605719
C        5.3302715215   -1.3329061938   -2.6057715207
C        4.4724120440   -0.4167084230   -3.4737292396
C        5.9153234360   -2.4055807991   -0.4669891950
N        5.0930202362    1.1403769070   -1.1191243779
N        4.9092058315    0.0580352089    0.7998014552
N        5.3461698136   -1.2820781450   -1.2054229724
O        6.0058386497   -2.1538158968   -3.2121138834
H        4.7903970468    3.1324748016   -0.2444746573
H        4.5128700446    1.8687705736    2.0307081456
H        4.2724029312   -0.8694607300   -4.4478986547
H        5.0690427429    0.4718389471   -3.6953598746
H        3.5880327773   -0.0559944935   -2.9428515120
H        5.7254765067   -2.3708469312    0.6089059834
H        7.0027567467   -2.3534824346   -0.5898954407
H        5.6674695192   -3.3628189454   -0.9373714562
H        4.8604282415   -0.7246104915    1.4411000268
19   

C        4.8015650014    2.0698704706   -0.0964581136
C        4.7286772638    1.4068983662    1.0881977574
C        5.1710860945   -0.0173801888   -0.5715104615
C        5.2698651203   -1.3650628407   -2.5941668755
C        4.4541176771   -0.4031075320   -3.4541888661
C        6.0243352778   -2.3556197095   -0.4790835686
N        5.0611096177    1.1674781538   -1.1129012505
N        4.9776349592    0.0722779227    0.8036786128
N        5.4409230143   -1.2360574258   -1.2158979676
O        5.7508643486   -2.3138429164   -3.2026253482
H        4.6732793043    3.1385875390   -0.2237948762
H        4.5089822399    1.8552950177    2.0500243918
H        4.2195274403   -0.8339979663   -4.4306655185
H        5.0660030836    0.4851421330   -3.6302128138
H        3.5865808866   -0.0204007332   -2.9112805505
H        5.9665681968   -2.2615996479    0.6083019355
H        7.0847197083   -2.4033674077   -0.7498356257
H        5.6635255915   -3.3157203110   -0.8625804612
H        4.9827638805   -0.7137172493    1.4425388031
19   

C        4.7749746719    2.0764568289   -0.0607910235
C        4.8551161098    1.4146026137    1.1233492660
C        5.3129645443    0.0337188568   -0.5690199481
C        5.3049960859   -1.3859416833   -2.5538607175
C        4.4886618007   -0.4226857882   -3.4123673290
C        6.3139807957   -2.2267923261   -0.4736569041
N        5.0461359058    1.1995896172   -1.0960389812
N        5.2158102608    0.1105464020    0.8172932424
N        5.6548370591   -1.1583545674   -1.2258278946
O        5.6045619103   -2.4281778991   -3.1261852755
H        4.5336169566    3.1269460050   -0.1739971209
H        4.6607732840    1.8440104088    2.0990278536
H        4.2213311459   -0.8596915210   -4.3777403358
H        5.0763428764    0.4853127958   -3.5682793765
H        3.6234384181   -0.0549898352   -2.8557820126
H        5.6700740224   -2.5359350662    0.3548231381
H        7.1687076546   -1.8140988544    0.0722491094
H        6.5943474417   -3.0971363649   -1.0758871689
H        5.3460514619   -0.6678357215    1.4517504672
