22   

C        1.8238938693   -0.2070890694    0.1170454778
C        0.5374414478   -0.4647881479    0.5837179094
C        2.9231732136   -0.4412936315    0.9457545160
C        0.3551696757   -0.9612012850    1.8752614695
C        2.7602446371   -0.9282505904    2.2537354472
C        1.4492037304   -1.2002007864    2.7250431362
C        3.9531985060   -1.1290921218    3.0993932345
C        5.2694877430   -0.8026800157    2.8750549637
C        1.1983328323   -1.7642438673    4.1035145296
C        6.3746217888   -1.6108833429    2.2243155503
H        1.9718099253    0.1771392806   -0.8856539086
H       -0.3198394104   -0.2828044095   -0.0543815994
H        3.9180024137   -0.2317798414    0.5709698285
H       -0.6522450436   -1.1634607659    2.2200313851
H        3.7298488114   -1.3035486959    4.1440643014
H        5.7022178254   -0.3425201687    3.7570548186
H        1.7832098384   -2.6777521032    4.2492455205
H        1.4768369969   -1.0315674903    4.8668704694
H        0.1420661491   -2.0156357157    4.2379588109
H        7.1847199035   -1.7954642116    2.9363356853
H        5.9841739828   -2.5733418894    1.8799821055
H        6.7767262124   -1.0679620866    1.3641067127
22   

C        1.9183344101   -0.2777416109    0.1185839076
C        0.6174746444   -0.5044751029    0.5602170914
C        2.9921113767   -0.4761810553    0.9889903782
C        0.3952460180   -0.9337008921    1.8692726716
C        2.7888643338   -0.8920198415    2.3165916628
C        1.4628198785   -1.1326065697    2.7618781293
C        3.9509288606   -1.0579426601    3.2115149556
C        5.2683485942   -0.7942056483    2.9670551580
C        1.1704165097   -1.6401216287    4.1540499665
C        6.2419611261   -1.5944965357    2.1295795955
H        2.0972326477    0.0553854812   -0.8972532229
H       -0.2198949585   -0.3517620049   -0.1111348141
H        3.9967902239   -0.2881627954    0.6303157400
H       -0.6225419227   -1.1173185865    2.1933797967
H        3.7030021313   -1.1413231132    4.2621052756
H        5.7822489031   -0.4269998339    3.8489913766
H        1.7666144205   -2.5341698241    4.3621098785
H        1.4053138637   -0.8692991537    4.8939235680
H        0.1152340910   -1.9095607111    4.2590353312
H        7.0998469306   -1.9037226263    2.7342407100
H        5.7522086040   -2.4888575255    1.7321631031
H        6.5998652742   -0.9888065453    1.2919910935
22   

C        1.9917916076   -0.3489970723    0.1221959433
C        0.6818365842   -0.5520886392    0.5468537866
C        3.0465616651   -0.4987248872    1.0249047235
C        0.4314157585   -0.9073548552    1.8724887879
C        2.8154364435   -0.8377613234    2.3709119676
C        1.4791243228   -1.0523456013    2.7983626831
C        3.9496860461   -0.9540397934    3.3096488035
C        5.2718480682   -0.8033437466    3.0405424708
C        1.1576179398   -1.4986859248    4.2049747879
C        6.1010109956   -1.6096942927    2.0681300118
H        2.1926160158   -0.0702730486   -0.9058463724
H       -0.1404883951   -0.4390206461   -0.1504460480
H        4.0551494896   -0.3217885450    0.6738539950
H       -0.5927761297   -1.0783268808    2.1830016361
H        3.6919865525   -0.9501577153    4.3614398406
H        5.8576031223   -0.5054431471    3.9034995721
H        1.7703394772   -2.3648702811    4.4744885004
H        1.3488640112   -0.6868388822    4.9125504056
H        0.1078216142   -1.7947353640    4.2909100169
H        6.9752435310   -2.0296848462    2.5745421923
H        5.5088771595   -2.4316259455    1.6536663665
H        6.4424831997   -0.9718323026    1.2476946151
22   

C        2.0318560086   -0.3945845104    0.1304415262
C        0.7175281812   -0.5867459953    0.5443888373
C        3.0749005140   -0.5037360681    1.0522010145
C        0.4508629873   -0.8874261234    1.8797627631
C        2.8291929341   -0.7905430184    2.4091641409
C        1.4862260080   -0.9883272744    2.8252507182
C        3.9408906428   -0.8659347598    3.3788418925
C        5.2662531168   -0.8478981216    3.1106868506
C        1.1461876322   -1.3889985975    4.2413210726
C        5.9805488523   -1.6240643588    2.0322286914
H        2.2454053198   -0.1531390302   -0.9044503751
H       -0.0953678816   -0.5065885935   -0.1683571870
H        4.0820377119   -0.3226406108    0.7023681421
H       -0.5766025713   -1.0524807787    2.1824841826
H        3.6784648551   -0.8008390002    4.4276076556
H        5.8956558795   -0.6283567761    3.9663014966
H        1.7706008255   -2.2319424426    4.5544856640
H        1.3063248537   -0.5480943450    4.9219545475
H        0.1016393005   -1.7056822464    4.3174469669
H        6.8492915499   -2.1381800990    2.4542168976
H        5.3150212345   -2.3740221811    1.5932338441
H        6.3252582206   -0.9468398461    1.2453357075
22   

C        2.0535810085   -0.4207016632    0.1368669019
C        0.7393586230   -0.6100144724    0.5501546729
C        3.0934586793   -0.4962643580    1.0653316812
C        0.4694986523   -0.8706703120    1.8927206221
C        2.8468140678   -0.7478440385    2.4304152912
C        1.5013860287   -0.9355560214    2.8452689965
C        3.9458931223   -0.7887228665    3.4177773021
C        5.2640742623   -0.9128678013    3.1642209043
C        1.1560978629   -1.3032154309    4.2691384467
C        5.8994606687   -1.6321136966    2.0022226780
H        2.2696893619   -0.2045924985   -0.9030929395
H       -0.0707969649   -0.5570591663   -0.1682305396
H        4.0952100208   -0.3033628825    0.7093364416
H       -0.5580709629   -1.0344218227    2.1957065201
H        3.6843034360   -0.6786665680    4.4630944930
H        5.9159469217   -0.7730988430    4.0197200659
H        1.7924249281   -2.1260214513    4.6107854303
H        1.2943808835   -0.4413588366    4.9278237459
H        0.1172230225   -1.6382714605    4.3446021728
H        6.7612558070   -2.2091085817    2.3507465933
H        5.1911201973   -2.3263976011    1.5395037632
H        6.2474063969   -0.9131202582    1.2547841997
22   

C        2.0629796367   -0.4432212355    0.1397020516
C        0.7492917183   -0.6222580475    0.5573866091
C        3.1032782439   -0.4975045435    1.0690274124
C        0.4803157252   -0.8485758168    1.9058952063
C        2.8595696995   -0.7188581567    2.4407434345
C        1.5125301660   -0.8905701408    2.8594949812
C        3.9528406501   -0.7386497734    3.4356488000
C        5.2544893322   -0.9988925713    3.2117394484
C        1.1655652890   -1.2283325901    4.2905066169
C        5.8636128270   -1.6272916029    1.9867068803
H        2.2785436771   -0.2496189141   -0.9048032194
H       -0.0610118171   -0.5867518282   -0.1619059241
H        4.1005926497   -0.3026602516    0.7039114554
H       -0.5471946320   -1.0048276886    2.2129413945
H        3.6914950673   -0.6005130066    4.4777064977
H        5.9040451752   -0.9403749388    4.0783408528
H        1.8047227966   -2.0405465089    4.6517838650
H        1.2975128427   -0.3516192971    4.9304995824
H        0.1284682122   -1.5678378789    4.3705944840
H        6.7294478028   -2.2304570569    2.2758382595
H        5.1481019918   -2.2880746597    1.4877514356
H        6.2052062061   -0.8549921096    1.2913246297
22   

C        2.0589636151   -0.4656192282    0.1389580869
C        0.7457546426   -0.6236756895    0.5652209710
C        3.1026179538   -0.5086508047    1.0650476848
C        0.4806074499   -0.8162938739    1.9193643720
C        2.8641086041   -0.6975869135    2.4429809536
C        1.5161818931   -0.8455653627    2.8698583406
C        3.9580651193   -0.7077045078    3.4381311429
C        5.2327158947   -1.0947516037    3.2469790540
C        1.1703436636   -1.1534235594    4.3080243695
C        5.8574555298   -1.6106930191    1.9790487789
H        2.2718154585   -0.2962094207   -0.9102981821
H       -0.0670204698   -0.5978164525   -0.1516903775
H        4.0970982081   -0.3253741411    0.6880795913
H       -0.5469111373   -0.9575771521    2.2334915587
H        3.6968005480   -0.5531447601    4.4778475128
H        5.8635514188   -1.1164573863    4.1289939200
H        1.8048313471   -1.9629768020    4.6833607418
H        1.3089844116   -0.2656168459    4.9309826024
H        0.1315553254   -1.4855490708    4.3967289991
H        6.7412420332   -2.2074329565    2.2237617223
H        5.1624217651   -2.2565639185    1.4340256774
H        6.1776742872   -0.7791711659    1.3444352875
22   

C        2.0671777998   -0.4350000169    0.1363004221
C        0.7549785237   -0.4523377969    0.5946924852
C        3.0975245924   -0.9010949920    0.9548075393
C        0.4772957715   -0.9426988849    1.8692445199
C        2.8446591691   -1.4084809087    2.2465575105
C        1.4988824665   -1.4315439927    2.7022951442
C        3.9260596001   -1.9396228117    3.1032682177
C        5.2378426250   -1.6446831955    3.0370857067
C        1.1458389191   -1.8661714877    4.1054060480
C        5.8809450618   -0.4963587654    2.3060412440
H        2.2888977528   -0.0711219371   -0.8603810971
H       -0.0474115202   -0.0858262626   -0.0354453354
H        4.0924041142   -0.9137583842    0.5353243360
H       -0.5482975082   -0.9322528343    2.2192709127
H        3.6481076144   -2.5851507376    3.9274683756
H        5.8749510560   -2.1620607411    3.7461399843
H        1.2420809911   -2.9510276859    4.2026223806
H        1.8062537095   -1.3772334581    4.8289581195
H        0.1192329176   -1.5816046448    4.3551057523
H        6.2061575097   -0.8119298673    1.3103804886
H        5.1926203255    0.3502614477    2.2224332355
H        6.7619351998   -0.1568685360    2.8589233694
22   

C        2.0580580210   -0.4500266346    0.1255978197
C        0.7448753120   -0.4554805751    0.5831433557
C        3.0867069664   -0.8996168295    0.9555685440
C        0.4646804386   -0.9146919525    1.8691705452
C        2.8291081864   -1.3790193285    2.2561006250
C        1.4846685252   -1.3855407061    2.7143208806
C        3.9150337739   -1.8907034038    3.1183492119
C        5.2400121978   -1.6998802725    2.9590494615
C        1.1313425698   -1.7924700179    4.1254797383
C        5.9150569331   -0.5078940355    2.3307756808
H        2.2817189263   -0.1067062925   -0.8779107822
H       -0.0564150301   -0.1027211019   -0.0561754790
H        4.0866941075   -0.9159320634    0.5466615170
H       -0.5612954227   -0.8951102208    2.2177456217
H        3.6353682716   -2.5142682204    3.9586950285
H        5.8747524563   -2.2830270698    3.6173789283
H        1.2329788989   -2.8746664999    4.2450942471
H        1.7886210025   -1.2857877377    4.8395533832
H        0.1026663074   -1.5087000396    4.3673852918
H        6.2499508915   -0.7510358686    1.3181494679
H        5.2363969889    0.3500314153    2.2951330181
H        6.7901697623   -0.2236502144    2.9227784261
22   

C        2.0349157979   -0.4713342692    0.1039470010
C        0.7226279941   -0.4753434288    0.5661282700
C        3.0700336532   -0.8861219036    0.9441739484
C        0.4500562027   -0.8946634447    1.8678994000
C        2.8177360668   -1.3290617652    2.2572417952
C        1.4769584209   -1.3284083502    2.7243150824
C        3.9198344465   -1.7996901563    3.1208236859
C        5.2469771090   -1.7224261708    2.8729396210
C        1.1332241471   -1.7012185630    4.1470860228
C        5.9987333743   -0.5274471151    2.3412925180
H        2.2527708134   -0.1538202173   -0.9092783804
H       -0.0840023795   -0.1507881119   -0.0813624563
H        4.0748887347   -0.8952976956    0.5445812288
H       -0.5751105359   -0.8744254864    2.2188889702
H        3.6430914662   -2.3851400378    3.9889662149
H        5.8587634415   -2.3712128638    3.4903668748
H        1.2588560599   -2.7770969591    4.2978596457
H        1.7801809636   -1.1600708732    4.8450258642
H        0.0983396903   -1.4344004579    4.3815792871
H        6.3304812733   -0.7159203629    1.3160705917
H        5.3631388259    0.3635844819    2.3540592341
H        6.8787099306   -0.3326812202    2.9616238264
22   

C        1.9937622579   -0.4944366814    0.0766003733
C        0.6846624094   -0.4949487325    0.5497207941
C        3.0389929654   -0.8712666859    0.9223819884
C        0.4256543041   -0.8694793112    1.8683869708
C        2.7983672414   -1.2711830044    2.2498843775
C        1.4633083354   -1.2623123582    2.7314568631
C        3.9214517437   -1.6985684586    3.1090830210
C        5.2419759419   -1.7308743493    2.7963906330
C        1.1351942170   -1.5976754803    4.1670718803
C        6.1077973731   -0.5631689280    2.3833631955
H        2.2011219163   -0.2070123929   -0.9477409983
H       -0.1301938941   -0.2013046466   -0.1022069460
H        4.0466370173   -0.8760822340    0.5268578571
H       -0.5971068945   -0.8480636610    2.2263251620
H        3.6481882848   -2.2394864156    4.0065492921
H        5.8064744853   -2.4531002341    3.3762826777
H        1.2883600354   -2.6649515308    4.3508523156
H        1.7722006844   -1.0193167258    4.8438879687
H        0.0946748663   -1.3507359963    4.3982532738
H        6.4446434933   -0.6929114568    1.3507600272
H        5.5447313521    0.3725664695    2.4563093734
H        6.9850504583   -0.4945415473    3.0336143042
22   

C        1.9185618623   -0.5525208474    0.0360077743
C        0.6188310113   -0.5409065353    0.5352538753
C        2.9844482909   -0.8698183386    0.8805124774
C        0.3900130810   -0.8417424847    1.8785286294
C        2.7739010709   -1.1922928157    2.2327078900
C        1.4493738647   -1.1698437689    2.7423154429
C        3.9266234170   -1.5531267161    3.0810851179
C        5.2385905003   -1.6996196582    2.7315325726
C        1.1515604473   -1.4443294266    4.1973708753
C        6.2506737079   -0.6176219663    2.4240520013
H        2.1025696572   -0.3193237718   -1.0064241705
H       -0.2124402511   -0.2955826946   -0.1159191768
H        3.9881241630   -0.8807369821    0.4732122798
H       -0.6263720887   -0.8163320713    2.2539867708
H        3.6651013654   -2.0151940924    4.0246188182
H        5.7264094830   -2.4872281452    3.2958484539
H        1.3504841675   -2.4941905263    4.4318562811
H        1.7723800360   -0.8077377248    4.8356442965
H        0.1039033210   -1.2310469613    4.4296510842
H        6.6016707328   -0.7166665075    1.3927885768
H        5.7965744209    0.3704764978    2.5470768767
H        7.1086475220   -0.6958281070    3.0985681599
22   

C        1.8215679447   -0.6081661969   -0.0009520960
C        0.5369178761   -0.5839042015    0.5359258720
C        2.9148658224   -0.8748457008    0.8258536095
C        0.3506658344   -0.8206528183    1.8986417304
C        2.7473863716   -1.1288996072    2.1976765631
C        1.4385475084   -1.0939700852    2.7459729328
C        3.9329503842   -1.4362005917    3.0214303385
C        5.2415866369   -1.6451174488    2.6562640925
C        1.1845712980   -1.3152881793    4.2183104062
C        6.3814341860   -0.6558966561    2.5141390567
H        1.9726071030   -0.4235958520   -1.0583250618
H       -0.3158010743   -0.3795798250   -0.1015233135
H        3.9081869629   -0.8951787925    0.3934832744
H       -0.6550003599   -0.7905331341    2.3016154022
H        3.6992807558   -1.8194281502    4.0064155137
H        5.6461094856   -2.5098999259    3.1714709758
H        1.4277000301   -2.3463916079    4.4918122784
H        1.7960195985   -0.6299773615    4.8135397890
H        0.1349308798   -1.1324313853    4.4668886088
H        6.7794739349   -0.6893169677    1.4958773718
H        6.0267369317    0.3588479132    2.7186473472
H        7.1858833751   -0.8944909735    3.2164457621
