28   
Generated by ForceBalance from scan.xyz: Frame 1 of 24
C        2.3532231839    2.9241924137    5.4485936519
C        1.4870591370    2.0317232957    6.0827635862
C        3.0866718935    2.5199862933    4.3323427085
C        2.1156812326    0.2789041031    4.4932923217
C        1.3670427247    0.7289722796    5.5983319306
C        2.9636195981    1.2104516673    3.8650267909
C        6.8575497774   -3.7505708647    6.4269805880
C        6.8563283892   -2.2801277426    6.0445035017
C        6.1073513034   -3.2843836181    5.2043021590
C        4.1026388370   -2.1213372880    4.4771865922
C        2.5997777392   -2.0480108134    4.7337380736
N        4.6615279507   -3.2379920199    5.2523446254
O        1.9702277000   -0.9786697230    3.9868703719
Cl       0.2225204949   -0.3555803317    6.3629150812
Cl       3.8739399466    0.7251216280    2.4518005297
H        2.4474726504    3.9408236278    5.8184499884
H        0.8947206022    2.3405722234    6.9378691038
H        3.7516523596    3.2088057916    3.8217527860
H        7.7687767067   -4.3243775575    6.2841911652
H        6.2561181084   -4.0371768850    7.2837871927
H        6.2598782126   -1.6142009070    6.6609377567
H        7.7642426864   -1.8443761376    5.6388214061
H        6.5619539076   -3.5163389155    4.2363391367
H        4.2916769325   -2.1951110760    3.3951645952
H        4.5768159048   -1.1982740028    4.8229791602
H        2.4087335549   -1.9362029471    5.8039537824
H        2.0947503084   -2.9547622440    4.3892337763
H        4.2996874128   -4.1037429171    4.8536122960
28   
Generated by ForceBalance from scan.xyz: Frame 2 of 24
C        2.3104778587    2.9669784538    5.3950308428
C        1.4727926203    2.0752097492    6.0672947688
C        3.0208847517    2.5517277162    4.2680069828
C        2.0849376417    0.3012389551    4.4949535512
C        1.3582326103    0.7621774590    5.6100769453
C        2.9037956726    1.2321280484    3.8283030554
C        6.8651505001   -3.8857097903    6.3157687920
C        6.8772768239   -2.3721987673    6.2144778741
C        6.1349212928   -3.1969592913    5.1892957153
C        4.1017016010   -2.0767675298    4.4741538470
C        2.6047877648   -2.0147450855    4.7662611544
N        4.6921817667   -3.1743986343    5.2449132658
O        1.9440191719   -0.9674268232    4.0156407993
Cl       0.2476919101   -0.3225727840    6.4230237516
Cl       3.7843560327    0.7326358408    2.4012583688
H        2.4002252936    3.9914789215    5.7436805221
H        0.8980120355    2.3922430819    6.9313408853
H        3.6632774299    3.2395483877    3.7279939725
H        7.7762549514   -4.4284259691    6.0813347818
H        6.2518616309   -4.3243400229    7.0967420677
H        6.2687868651   -1.8244134592    6.9275615138
H        7.7963349430   -1.8792110764    5.9116518061
H        6.5957697520   -3.2581600931    4.1983271727
H        4.2651045105   -2.1592708174    3.3884072748
H        4.5763766615   -1.1458981271    4.8005957563
H        2.4384732546   -1.8852455674    5.8385747378
H        2.1034291763   -2.9340640731    4.4508308100
H        4.3313458131   -4.0646611742    4.9045908957
28   
Generated by ForceBalance from scan.xyz: Frame 3 of 24
C        2.2493220952    3.0018808626    5.3193201294
C        1.4390331968    2.1118265909    6.0265374187
C        2.9495586085    2.5726748437    4.1911585865
C        2.0596466430    0.3118372273    4.4871114338
C        1.3421139636    0.7863151271    5.6025129793
C        2.8503669516    1.2409135138    3.7849877324
C        6.8935492759   -4.0045944623    6.1904527514
C        6.9336216805   -2.5001362501    6.3618739467
C        6.1804437125   -3.1143619426    5.2017207437
C        4.1176038673   -2.0377806895    4.4808815811
C        2.6269254401   -1.9868611725    4.8056987953
N        4.7389109640   -3.1084230791    5.2576065234
O        1.9347303004   -0.9705706690    4.0410587846
Cl       0.2651789557   -0.2989088829    6.4588659364
Cl       3.7171497811    0.7232062348    2.3559611721
H        2.3254917637    4.0360017787    5.6418007996
H        0.8721545105    2.4391614493    6.8919714606
H        3.5703546260    3.2589438889    3.6245690161
H        7.7953421594   -4.5147854171    5.8652262559
H        6.2704917887   -4.5653609691    6.8809318230
H        6.3276785712   -2.0745709743    7.1556649159
H        7.8649562457   -1.9803666255    6.1554253616
H        6.6420540119   -3.0168870470    4.2143786987
H        4.2567080326   -2.1399613815    3.3931654492
H        4.5877045736   -1.0942683063    4.7777943555
H        2.4828826987   -1.8292722248    5.8774429896
H        2.1325147022   -2.9219229217    4.5275895954
H        4.3788362209   -4.0200506165    4.9824393465
28   
Generated by ForceBalance from scan.xyz: Frame 4 of 24
C        2.2037678561    3.0354055697    5.2409373526
C        1.4183982836    2.1539044652    5.9859827592
C        2.8907638740    2.5845347798    4.1130965016
C        2.0384256981    0.3206803359    4.4861341550
C        1.3331941402    0.8159297506    5.6003287853
C        2.8038337880    1.2408046568    3.7452659499
C        6.9231171519   -4.0941453821    6.0623399946
C        6.9762033631   -2.6500329698    6.5122939906
C        6.2176737751   -3.0303078807    5.2560371167
C        4.1279775251   -2.0029379878    4.5080196722
C        2.6425804272   -1.9606539726    4.8580220761
N        4.7750136203   -3.0431530755    5.2984277822
O        1.9238941261   -0.9751734082    4.0777667189
Cl       0.2865570080   -0.2599751614    6.5046358257
Cl       3.6533439362    0.6959749663    2.3158847882
H        2.2706356778    4.0790063001    5.5335903791
H        0.8616334874    2.4971290960    6.8518204203
H        3.4920216660    3.2633310731    3.5171991668
H        7.8198902518   -4.5448391305    5.6477805261
H        6.2976929418   -4.7700448758    6.6391887619
H        6.3705064481   -2.3732020763    7.3694421949
H        7.9141408030   -2.1110725295    6.4088663671
H        6.6793013734   -2.7631833793    4.3017060220
H        4.2484425048   -2.1305971288    3.4205226777
H        4.5899751874   -1.0456013952    4.7721691722
H        2.5155412223   -1.7750631318    5.9274267735
H        2.1559288000   -2.9093432467    4.6144967892
H        4.4206949471   -3.9713810224    5.0833188399
28   
Generated by ForceBalance from scan.xyz: Frame 5 of 24
C       -1.1046053081   -0.6861757989    0.4340939475
C        0.0758016842   -0.1316923852    0.9337867026
C       -1.2912473272   -2.0700448493    0.4319425413
C        0.9128013155   -2.3724665679    1.4470812910
C        1.0688957244   -0.9748529651    1.4330987678
C       -0.2854571136   -2.8976718458    0.9331693965
C        7.2936523061   -3.1778503818    1.1407669676
C        6.1376091733   -2.2041429314    1.2164430622
C        5.9617472199   -3.5367416046    0.5150292254
C        4.0033300097   -4.2451276872    1.9050554725
C        2.9116363929   -3.5868899256    1.0728460307
N        5.1347899234   -4.5952137804    1.0547230044
O        1.8645160798   -3.1828978625    1.9873587205
Cl       2.5478708784   -0.2839241354    2.0687483445
Cl      -0.5132726382   -4.6328837267    0.9306664422
H       -1.8835754901   -0.0363380819    0.0464560572
H        0.2284758369    0.9426220005    0.9427851617
H       -2.2056395445   -2.5095490337    0.0469024604
H        8.1288123647   -2.9530495944    0.4832044994
H        7.5643523242   -3.6952245809    2.0576698653
H        5.6628548474   -2.0627524939    2.1815325000
H        6.1654078888   -1.3117353778    0.5984165296
H        5.9357535165   -3.4722066544   -0.5724658800
H        4.2496691847   -3.5716456062    2.7405798800
H        3.6076646050   -5.1671485519    2.3423150943
H        2.5086507345   -4.2866493964    0.3328440355
H        3.3044595245   -2.7052211831    0.5559731580
H        5.6917623740   -5.3416814984    1.4530387181
28   
Generated by ForceBalance from scan.xyz: Frame 6 of 24
C       -1.2037678708   -0.7316112060    0.3677465184
C       -0.0488274158   -0.1276379422    0.8695989719
C       -1.3427617186   -2.1209860309    0.3871960327
C        0.8591677555   -2.3282758063    1.4281994460
C        0.9682700985   -0.9267104155    1.3926450594
C       -0.3145452060   -2.9048484861    0.9124805178
C        7.3727083336   -3.3605892866    0.9843689169
C        6.3695121721   -2.3081662389    1.4120026134
C        5.9289733886   -3.4888066300    0.5633594847
C        3.9651808990   -4.1695297626    1.9297373144
C        2.8899735111   -3.4970618547    1.0875544102
N        5.0946491862   -4.5459401943    1.0876081270
O        1.8331949663   -3.0957895232    1.9913167423
Cl       2.4161857164   -0.1757110109    2.0307489062
Cl      -0.4828287097   -4.6469012286    0.9398752756
H       -2.0007594031   -0.1158976901   -0.0385290704
H        0.0660795332    0.9513703388    0.8616986133
H       -2.2375955011   -2.5981840380    0.0011092450
H        8.1088783253   -3.1090187207    0.2262473033
H        7.7315877188   -4.0430453521    1.7508519823
H        6.0777239108   -2.2949863025    2.4572805968
H        6.4077417072   -1.3294707397    0.9427429016
H        5.7325890198   -3.2482427499   -0.4810933425
H        4.2276509711   -3.4887205858    2.7544666011
H        3.5470835542   -5.0780858932    2.3742711938
H        2.4942019005   -4.1884911058    0.3359317568
H        3.2934222576   -2.6114013025    0.5847884279
H        5.6402145598   -5.2991674870    1.4882505790
28   
Generated by ForceBalance from scan.xyz: Frame 7 of 24
C       -1.3268565206   -0.7809674336    0.3211149543
C       -0.1954758353   -0.1206456513    0.8052044440
C       -1.4102479048   -2.1739691901    0.3732021533
C        0.8005345152   -2.2698660745    1.4111106485
C        0.8541001977   -0.8664503687    1.3428122655
C       -0.3508480658   -2.9044269490    0.9131438095
C        7.4111103222   -3.5230078845    0.8619594393
C        6.5999927379   -2.4609875081    1.5821463806
C        5.9269668870   -3.4333986971    0.6253356048
C        3.9297124137   -4.0710344286    1.9300549317
C        2.8645797251   -3.3837408438    1.0868376876
N        5.0492634000   -4.4836712806    1.0871884314
O        1.8053420471   -2.9856306096    1.9888352196
Cl       2.2726115401   -0.0440096349    1.9579917889
Cl      -0.4509702487   -4.6506364615    0.9829816794
H       -2.1486749687   -0.2068663914   -0.0964929494
H       -0.1233063321    0.9615748399    0.7721113972
H       -2.2865325412   -2.6950194443    0.0015655913
H        8.0795718892   -3.2218692773    0.0606562151
H        7.7755604542   -4.3573323250    1.4566684595
H        6.4316844741   -2.6042425908    2.6454884983
H        6.7087612285   -1.4244776701    1.2759665634
H        5.6362594168   -3.0092243577   -0.3344673971
H        4.2207941178   -3.3865246535    2.7422382573
H        3.4889176883   -4.9624307143    2.3871335181
H        2.4709827938   -4.0679901103    0.3277211841
H        3.2715427466   -2.4942718524    0.5931803443
H        5.5710925393   -5.2438303792    1.5079479704
28   
Generated by ForceBalance from scan.xyz: Frame 8 of 24
C       -1.3944538446   -0.8156249658    0.2844164235
C       -0.2697050119   -0.1257669575    0.7419947859
C       -1.4559862075   -2.2078712745    0.3734610691
C        0.7643008823   -2.2429368761    1.3961273404
C        0.7953094480   -0.8412201724    1.2904523869
C       -0.3811128521   -2.9072451234    0.9238780855
C        7.4164055160   -3.5786126183    0.7514152107
C        6.7658707829   -2.5921743653    1.7077078852
C        5.9295279819   -3.3639438983    0.6982804740
C        3.9103682002   -4.0085990357    1.9341330237
C        2.8417462561   -3.3346832043    1.0845379214
N        5.0351027876   -4.4288969313    1.0944506025
O        1.7840325603   -2.9286498356    1.9845158970
Cl       2.2053826609    0.0191237318    1.8722440061
Cl      -0.4535856901   -4.6522501338    1.0397634246
H       -2.2281499245   -0.2652195806   -0.1414550077
H       -0.2144197793    0.9561821982    0.6800265981
H       -2.3268325183   -2.7519157616    0.0225485601
H        8.0228388972   -3.1963640836   -0.0643775994
H        7.7752332058   -4.5170350967    1.1680202287
H        6.6881932774   -2.8885945976    2.7504389291
H        6.9298425841   -1.5295866741    1.5510263967
H        5.5683183394   -2.7901827201   -0.1523450364
H        4.2057212836   -3.3161904473    2.7382108763
H        3.4700292868   -4.8958567869    2.3996654296
H        2.4483205560   -4.0308691693    0.3363805889
H        3.2408547563   -2.4500685546    0.5762464633
H        5.5555351535   -5.1678721962    1.5568207684
28   
Generated by ForceBalance from scan.xyz: Frame 9 of 24
C       -1.4374820626   -0.8482069916    0.2454944709
C       -0.3241998657   -0.1320998780    0.6906135724
C       -1.4775525357   -2.2392946990    0.3609134939
C        0.7416668390   -2.2199861680    1.3857445755
C        0.7512346026   -0.8202652924    1.2534333177
C       -0.3925548547   -2.9112730124    0.9253781224
C        7.4179011660   -3.6104768262    0.6235786736
C        6.9619872082   -2.7452323566    1.7894250009
C        5.9578636428   -3.2982092403    0.7899063921
C        3.9105318800   -3.9314875485    1.9607152142
C        2.8364172426   -3.2844117174    1.0969277224
N        5.0404582916   -4.3657990353    1.1283620851
O        1.7712146392   -2.8786835992    1.9880098411
Cl       2.1471667984    0.0730167050    1.8198003058
Cl      -0.4377862959   -4.6546505019    1.0743911376
H       -2.2791993122   -0.3191088390   -0.1914447396
H       -0.2857711907    0.9491948710    0.6080079526
H       -2.3394320587   -2.8033957988    0.0196737795
H        7.9599262449   -3.1428885993   -0.1930395997
H        7.7430191061   -4.6238393562    0.8476183193
H        6.9775346084   -3.1940059968    2.7796660204
H        7.1965018913   -1.6843136103    1.7710136154
H        5.5405307101   -2.5849750921    0.0839724522
H        4.2056529615   -3.2236951708    2.7511968429
H        3.4729474652   -4.8103303376    2.4443738057
H        2.4550113059   -3.9986275365    0.3597449282
H        3.2220430802   -2.4027390378    0.5734356339
H        5.5474636485   -5.0921113380    1.6277998245
28   
Generated by ForceBalance from scan.xyz: Frame 10 of 24
C       -1.4817930744   -0.8814126949    0.1918250644
C       -0.3721794341   -0.1402965704    0.6039787884
C       -1.5115245031   -2.2670799206    0.3624160073
C        0.7108849675   -2.1911643840    1.3773149446
C        0.7101982227   -0.7978069306    1.1895888694
C       -0.4197920130   -2.9084263047    0.9490434047
C        7.3748370963   -3.5734756696    0.5032810091
C        7.1423276605   -2.9420027706    1.8688084091
C        5.9780543648   -3.2251773056    0.9340074223
C        3.8870389030   -3.8749682063    2.0025540963
C        2.8116341745   -3.2520771876    1.1223816335
N        5.0308643179   -4.2963807233    1.1769460583
O        1.7473365431   -2.8181620649    2.0011411620
Cl       2.1016790081    0.1273636856    1.7148638981
Cl      -0.4517243100   -4.6448488156    1.1672344220
H       -2.3287776936   -0.3760277521   -0.2626462193
H       -0.3418797381    0.9370886454    0.4782635738
H       -2.3704832813   -2.8503228183    0.0469712163
H        7.8471684794   -2.9776022483   -0.2721365431
H        7.6383418047   -4.6280244584    0.4755498589
H        7.2484367826   -3.5827431147    2.7412777745
H        7.4577210208   -1.9139024123    2.0261953328
H        5.5254350683   -2.3658296035    0.4474761459
H        4.1656187529   -3.1596072852    2.7915658670
H        3.4588615883   -4.7562628207    2.4898524519
H        2.4291188393   -3.9871325421    0.4067450747
H        3.1979311937   -2.3881515912    0.5703501668
H        5.5108805947   -5.0432269986    1.6744709234
28   
Generated by ForceBalance from scan.xyz: Frame 11 of 24
C       -1.5026519194   -0.9226681964    0.0988306153
C       -0.3975674627   -0.1765603029    0.5142205900
C       -1.5409565817   -2.3040851094    0.2995394925
C        0.6634776299   -2.2139380030    1.3515422626
C        0.6714690969   -0.8250469728    1.1332910143
C       -0.4623389550   -2.9363654533    0.9193621313
C        7.2417448315   -3.4410042671    0.3415777950
C        7.2527956030   -3.0578792459    1.8150480106
C        5.9452824650   -3.1656603451    1.0523831742
C        3.8409731509   -3.8610234981    2.0666587780
C        2.7655854512   -3.2840033727    1.1554818030
N        5.0096463152   -4.2588273018    1.2638498812
O        1.6871346846   -2.8299746132    2.0064172260
Cl       2.0572007234    0.1063932161    1.6633153166
Cl      -0.5049260617   -4.6674036358    1.1751436073
H       -2.3393995990   -0.4244454950   -0.3817523625
H       -0.3607171005    0.8976572011    0.3653031759
H       -2.3965611821   -2.8910139736   -0.0181752667
H        7.6062610735   -2.7206047818   -0.3850464099
H        7.4555814894   -4.4770368245    0.0918418487
H        7.4779704603   -3.8429538868    2.5337508591
H        7.6239648171   -2.0757571034    2.0961817957
H        5.4480905792   -2.2327440328    0.8030166358
H        4.0813437120   -3.1262116126    2.8501649171
H        3.4321020018   -4.7473080346    2.5612011698
H        2.3983070799   -4.0485028551    0.4630932016
H        3.1497607247   -2.4381451649    0.5745684642
H        5.4894752845   -4.9977306938    1.7729831117
28   
Generated by ForceBalance from scan.xyz: Frame 12 of 24
C       -1.4546606085   -0.9434177663    0.0087955938
C       -0.3723900519   -0.1881153907    0.4655909911
C       -1.4931913089   -2.3238658251    0.2160647577
C        0.6650814119   -2.2139247895    1.3578205190
C        0.6739387395   -0.8262096700    1.1323892014
C       -0.4375611998   -2.9458899037    0.8839595868
C        7.0622600636   -3.3180804347    0.2118426449
C        7.3720006864   -3.1784221417    1.6967237899
C        5.9418877310   -3.1389278418    1.2020857176
C        3.8222487519   -3.8376182375    2.2058110138
C        2.7769130617   -3.2761693675    1.2506561598
N        5.0164976122   -4.2373880079    1.4507834239
O        1.6654324797   -2.8196130683    2.0567612366
Cl       2.0307472816    0.1167296569    1.7145239548
Cl      -0.4807138326   -4.6755890356    1.1486790369
H       -2.2735404150   -0.4531451185   -0.5092782991
H       -0.3358559946    0.8854354244    0.3119180115
H       -2.3313897219   -2.9178611972   -0.1333279338
H        7.3183510711   -2.4949700856   -0.4495218330
H        7.1674439726   -4.3051218701   -0.2298511680
H        7.6939239109   -4.0733987120    2.2251450987
H        7.8356414221   -2.2614534461    2.0506036060
H        5.4554087637   -2.1673339932    1.2090695734
H        4.0271030483   -3.0930518684    2.9910994686
H        3.4018936205   -4.7217637241    2.6943646301
H        2.4402548295   -4.0501185013    0.5532092877
H        3.1783500783   -2.4342568781    0.6754877094
H        5.4980491796   -4.9613801287    1.9769587573
28   
Generated by ForceBalance from scan.xyz: Frame 13 of 24
C       -1.3610683429   -0.9862556711   -0.1571989865
C       -0.3100364751   -0.2206811497    0.3523094675
C       -1.4045864253   -2.3647684555    0.0617247611
C        0.6855515605   -2.2324366127    1.3222364350
C        0.6998636499   -0.8469502862    1.0834544685
C       -0.3854402446   -2.9744922804    0.7944729514
C        6.7613876324   -3.1677263103    0.0832016636
C        7.4296062067   -3.3348856886    1.4440729780
C        5.9376329680   -3.1364746672    1.3466179213
C        3.8039852026   -3.8230898946    2.3592109328
C        2.8034764348   -3.2875356344    1.3423786156
N        5.0314020041   -4.2218789571    1.6787472186
O        1.6483400044   -2.8256532162    2.0817424075
Cl       2.0170407189    0.1087452332    1.7314162372
Cl      -0.4359693772   -4.7017481545    1.0741577124
H       -2.1517176677   -0.5055600475   -0.7256532868
H       -0.2699264407    0.8515112787    0.1901898440
H       -2.2189091182   -2.9666742512   -0.3282467574
H        6.9236951191   -2.2423880878   -0.4632962680
H        6.6650270884   -4.0564571739   -0.5335260253
H        7.7860614426   -4.3306502840    1.6988828268
H        8.0434992267   -2.5270300889    1.8318302823
H        5.5737457216   -2.1582977826    1.6585905068
H        3.9614450469   -3.0574234076    3.1368317399
H        3.3695091153   -4.7005509656    2.8472423149
H        2.5087958984   -4.0760291927    0.6421160879
H        3.2312483999   -2.4528215873    0.7756916501
H        5.5159531955   -4.9543183833    2.1849884809
28   
Generated by ForceBalance from scan.xyz: Frame 14 of 24
C       -1.2805938617   -1.0146773391   -0.2442402050
C       -0.2570987669   -0.2394615621    0.3051453397
C       -1.3232454115   -2.3926954330   -0.0219713761
C        0.7116414101   -2.2402231136    1.3234287290
C        0.7261602013   -0.8554903669    1.0800410017
C       -0.3310000018   -2.9923413624    0.7546817356
C        6.4705943509   -3.0037321037    0.0869100355
C        7.3832631287   -3.4200300615    1.2350949110
C        5.9323020019   -3.1175349937    1.4945143307
C        3.7947627058   -3.8030103263    2.4979354189
C        2.8354837268   -3.2775597854    1.4369026879
N        5.0503422649   -4.1966510469    1.8771491117
O        1.6457082749   -2.8239501447    2.1248784982
Cl       2.0083874948    0.1121208586    1.7779724359
Cl      -0.3803535519   -4.7190657046    1.0384715713
H       -2.0505321671   -0.5418695961   -0.8467265237
H       -0.2180665761    0.8324080313    0.1406196436
H       -2.1163954363   -3.0019367331   -0.4429467612
H        6.6002602263   -2.0152239801   -0.3458363469
H        6.1681167195   -3.7811265025   -0.6081341878
H        7.6888660901   -4.4631955227    1.2644089514
H        8.1325168048   -2.7198450583    1.5918847244
H        5.7377807489   -2.1735052289    2.0090448491
H        3.9163764124   -3.0278217542    3.2736325512
H        3.3447407000   -4.6782176006    2.9758989863
H        2.5769679297   -4.0695764560    0.7262088115
H        3.2820148737   -2.4404210123    0.8891331333
H        5.5407165147   -4.9204197915    2.3883059997
28   
Generated by ForceBalance from scan.xyz: Frame 15 of 24
C       -1.2022573562   -1.0503801546   -0.3249089206
C       -0.1930174325   -0.2676914352    0.2399897230
C       -1.2451855385   -2.4269067048   -0.0937375353
C        0.7611272332   -2.2582290278    1.2933998234
C        0.7755736595   -0.8753402883    1.0396424865
C       -0.2672553827   -3.0171115663    0.7079428333
C        6.3021200630   -2.9142491303    0.1083560341
C        7.3390598944   -3.4966209126    1.0583359339
C        5.9682959652   -3.1387055504    1.5658029924
C        3.8205725890   -3.8040505189    2.5452506638
C        2.8856503149   -3.2868157949    1.4593149108
N        5.0883632249   -4.2139397040    1.9555880289
O        1.6797131360   -2.8332367090    2.1188287245
Cl       2.0399053775    0.1015471771    1.7565075033
Cl      -0.3171404434   -4.7418859389    1.0028666800
H       -1.9609827714   -0.5845033814   -0.9466989865
H       -0.1538993510    0.8031214975    0.0686328863
H       -2.0273256337   -3.0419457264   -0.5267450824
H        6.4358574739   -1.8946105874   -0.2427942394
H        5.8445857070   -3.5974209130   -0.6005293957
H        7.5668630521   -4.5535652116    0.9483719002
H        8.1790200699   -2.8780901907    1.3592851593
H        5.9151319439   -2.2402398039    2.1882987794
H        3.9317867293   -3.0191851357    3.3126835278
H        3.3558080189   -4.6707438539    3.0248851976
H        2.6441527179   -4.0839700280    0.7482937067
H        3.3413905333   -2.4514097590    0.9173685311
H        5.5764127525   -4.9012838304    2.5188452977
28   
Generated by ForceBalance from scan.xyz: Frame 16 of 24
C       -1.1654191227   -1.0787925991   -0.3744023321
C       -0.1721587145   -0.2865003808    0.2052622072
C       -1.1984084455   -2.4554384311   -0.1423284196
C        0.7843334915   -2.2662383439    1.2748710453
C        0.7901524805   -0.8834289598    1.0204196398
C       -0.2273745032   -3.0359550671    0.6746582932
C        6.1707684095   -2.8374409250    0.1665751245
C        7.2728841250   -3.5673362798    0.9144979999
C        6.0061026879   -3.1787871785    1.6308637329
C        3.8334529901   -3.7847392256    2.5770515979
C        2.9174010514   -3.2706219786    1.4743237781
N        5.1025762206   -4.2378467673    2.0112781718
O        1.6952226206   -2.8325001316    2.1147366146
Cl       2.0340409322    0.1062574134    1.7554119693
Cl      -0.2647972021   -4.7609448147    0.9701196514
H       -1.9189580583   -0.6206560238   -1.0081554654
H       -0.1406426945    0.7844614147    0.0333883434
H       -1.9679086030   -3.0783148657   -0.5865947736
H        6.3290757361   -1.7980381027   -0.1071043347
H        5.5820347819   -3.4211137154   -0.5342154847
H        7.4067977731   -4.6212436161    0.6884419041
H        8.1846078615   -3.0289225058    1.1548298676
H        6.0881721773   -2.3392171916    2.3291775927
H        3.9544354414   -2.9883642692    3.3306051547
H        3.3437469797   -4.6315006380    3.0677138946
H        2.6963445564   -4.0677845621    0.7565832062
H        3.3724720990   -2.4275845753    0.9449497814
H        5.5692527602   -4.8861639894    2.6385251428
28   
Generated by ForceBalance from scan.xyz: Frame 17 of 24
C       -1.1550412156   -1.0948220266   -0.4176227154
C       -0.1761125927   -0.2950807106    0.1760486787
C       -1.1799475873   -2.4720239390   -0.1879077576
C        0.7821597805   -2.2684554897    1.2558658968
C        0.7800564290   -0.8852812010    1.0032163443
C       -0.2149989688   -3.0456223953    0.6411186687
C        6.0626833193   -2.7590147398    0.2615390752
C        7.1863595579   -3.6165616632    0.8058198557
C        6.0374245475   -3.2244856819    1.7016900050
C        3.8278345750   -3.7449293934    2.6044697664
C        2.9230474017   -3.2508324733    1.4839644940
N        5.0950764596   -4.2563982947    2.0693216178
O        1.6860141153   -2.8286427276    2.1073736564
Cl       2.0059920217    0.1135080114    1.7558870115
Cl      -0.2417631169   -4.7712401755    0.9335153353
H       -1.9038678300   -0.6419815923   -1.0606923855
H       -0.1511292099    0.7763398337    0.0059464360
H       -1.9383343662   -3.1005616785   -0.6431817393
H        6.2569613996   -1.7088384295    0.0635890463
H        5.3646063456   -3.2388031054   -0.4170711436
H        7.2192544862   -4.6521457801    0.4814883361
H        8.1539895427   -3.1562527105    0.9824082738
H        6.2459378225   -2.4567015607    2.4540371334
H        3.9638476058   -2.9272740495    3.3314397567
H        3.3138567820   -4.5620032881    3.1204417683
H        2.7227017251   -4.0566689770    0.7696466495
H        3.3684111524   -2.4029113696    0.9557348055
H        5.5233246522   -4.8602638127    2.7671825286
28   
Generated by ForceBalance from scan.xyz: Frame 18 of 24
C       -1.1221559819   -1.1487148199   -0.4248270104
C       -0.1593239338   -0.3338763857    0.1746340934
C       -1.1210519070   -2.5273575754   -0.2026122052
C        0.8347068397   -2.2945300197    1.2452994068
C        0.8066768526   -0.9102842587    1.0000722815
C       -0.1464794427   -3.0871510738    0.6246368795
C        6.0685141620   -2.6778709027    0.3405204358
C        7.1697082681   -3.6601528937    0.6623798734
C        6.1612250728   -3.2869712248    1.7249552030
C        3.9133262944   -3.6848773132    2.6007185842
C        2.9965162197   -3.2318387497    1.4727133972
N        5.1654219691   -4.2728446237    2.0911295100
O        1.7475803085   -2.8422063067    2.0953787061
Cl       2.0126565086    0.1074143636    1.7597135433
Cl      -0.1404851268   -4.8145192022    0.9070419965
H       -1.8785788474   -0.7066757401   -1.0665226355
H       -0.1544302213    0.7387350767    0.0103849240
H       -1.8666264006   -3.1677359149   -0.6625205233
H        6.3200634814   -1.6277847853    0.2243318995
H        5.2728317553   -3.0349832177   -0.3045996047
H        7.0809818167   -4.6574972042    0.2434561446
H        8.1854631121   -3.2897605168    0.7670857556
H        6.5051259177   -2.6119474925    2.5145774217
H        4.0812082797   -2.8351916317    3.2818764462
H        3.3811721022   -4.4572235062    3.1653994979
H        2.8196186722   -4.0534805321    0.7700855754
H        3.4085366599   -2.3749787140    0.9337266304
H        5.5452473176   -4.8299230155    2.8545307967
28   
Generated by ForceBalance from scan.xyz: Frame 19 of 24
C       -1.2905859141   -1.2894507765   -0.4446768101
C       -0.1738368935   -0.4956900391   -0.1738710095
C       -1.3930672527   -2.5748782468    0.0913497353
C        0.7685554231   -2.2885573364    1.1962481756
C        0.8416796727   -0.9993654280    0.6394988843
C       -0.3670189212   -3.0628858160    0.9015205213
C        6.3196646724   -2.3392459842    1.1314175954
C        7.1147331544   -3.5241937120    0.6322102384
C        6.2709082351   -3.6519127876    1.8824916562
C        3.8739691307   -3.7536172996    2.4390501211
C        2.8391081765   -3.4226511069    1.3718052331
N        5.0381840476   -4.4100488531    1.8093928230
O        1.7393032076   -2.7508389022    2.0320880362
Cl       2.2422115756   -0.0068197950    0.9882974476
Cl      -0.4896994274   -4.6736262811    1.5765936099
H       -2.0860918455   -0.9033384719   -1.0750901857
H       -0.0871069952    0.5052641264   -0.5838465563
H       -2.2580940400   -3.1975178271   -0.1124753278
H        6.8519897834   -1.5111589159    1.5895521016
H        5.4407177836   -2.0514896547    0.5642636471
H        6.7429885926   -4.0376878848   -0.2486347977
H        8.1959181997   -3.5052116885    0.7382461859
H        6.8053728564   -3.6630134499    2.8357690643
H        4.1601806761   -2.8316677785    2.9566803360
H        3.4083307042   -4.4101909318    3.1826174569
H        2.4767394987   -4.3351467857    0.8856752368
H        3.2681305762   -2.7646372719    0.6094342381
H        5.1788027652   -5.3062073985    2.2659545781
28   
Generated by ForceBalance from scan.xyz: Frame 20 of 24
C       -1.1823856486   -1.2709685290   -0.5210916094
C       -0.0363933174   -0.5152899297   -0.2637630844
C       -1.3428596904   -2.5327368925    0.0553232011
C        0.8174562198   -2.2987468618    1.1749511615
C        0.9491188971   -1.0326610702    0.5772795491
C       -0.3457801324   -3.0354848298    0.8923026231
C        6.2039454949   -2.2557418483    1.2524448257
C        6.8964093453   -3.3529240731    0.4772892901
C        6.2752788191   -3.6547888805    1.8262298381
C        3.8858422063   -3.7733203003    2.4917429314
C        2.8490576672   -3.4918260134    1.4115537390
N        5.0550222217   -4.4445118227    1.8897375870
O        1.7594328943   -2.7719248594    2.0369674133
Cl       2.3853882394   -0.0859868174    0.9099742879
Cl      -0.5403158954   -4.6174103955    1.6162141609
H       -1.9550013409   -0.8736038204   -1.1726219995
H        0.0955979894    0.4672364247   -0.7050197971
H       -2.2305600294   -3.1260721798   -0.1381546577
H        6.8095628640   -1.4858416806    1.7212120165
H        5.2491742572   -1.9011930678    0.8790837869
H        6.3735752302   -3.7584598142   -0.3832920664
H        7.9797781665   -3.3310087950    0.3941199116
H        6.9670924909   -3.7725199307    2.6617305226
H        4.1559616643   -2.8324373500    2.9836944620
H        3.4264861902   -4.4154839666    3.2512424955
H        2.4749923732   -4.4261666003    0.9787506342
H        3.2799997571   -2.8840009073    0.6095672044
H        5.2439542013   -5.2775860984    2.4369674021
28   
Generated by ForceBalance from scan.xyz: Frame 21 of 24
C       -1.1131970893   -1.3114699691   -0.5872920225
C        0.0271074781   -0.5534824171   -0.3123598055
C       -1.2927920689   -2.5619789859    0.0077202215
C        0.8368595000   -2.3120458260    1.1820436044
C        0.9876576779   -1.0575801210    0.5648989717
C       -0.3204352423   -3.0509442437    0.8811296646
C        6.0976761010   -2.2272797776    1.4100650000
C        6.5304752740   -3.2573084727    0.3847085304
C        6.2042796702   -3.6860774919    1.7994364477
C        3.8411459272   -3.8095686920    2.6187845493
C        2.8493952292   -3.5187716745    1.4979759844
N        5.0220009948   -4.4940339156    2.0771732710
O        1.7538674763   -2.7713093472    2.0782112093
Cl       2.4160450665   -0.1069650976    0.9193143572
Cl      -0.5397536078   -4.6181206251    1.6293031052
H       -1.8665371390   -0.9246292099   -1.2671021925
H        0.1737977662    0.4204862826   -0.7677238690
H       -2.1764443256   -3.1569166583   -0.1989352665
H        6.8415745164   -1.5426215049    1.8074407684
H        5.1147939915   -1.7840098745    1.2932301693
H        5.8037149066   -3.5345162143   -0.3734523800
H        7.5659699548   -3.2681276340    0.0548252614
H        7.0618693987   -3.9274757836    2.4254308884
H        4.0872249005   -2.8726809646    3.1346372059
H        3.3482469845   -4.4611759610    3.3476174596
H        2.4746813124   -4.4517888796    1.0635976837
H        3.3151588802   -2.9268915974    0.7030321078
H        5.2853883159   -5.2376720501    2.7124926995
28   
Generated by ForceBalance from scan.xyz: Frame 22 of 24
C       -1.0408455492   -1.3304666032   -0.6371434381
C        0.0880764898   -0.5635111785   -0.3408550768
C       -1.2207487003   -2.5837448615   -0.0480465040
C        0.8852539961   -2.3180434811    1.1637084522
C        1.0374462061   -1.0611939130    0.5521297507
C       -0.2600187550   -3.0665893565    0.8414930955
C        6.1234559534   -2.2300248727    1.4761130949
C        6.2766587063   -3.1986285961    0.3120282549
C        6.1786244760   -3.7233648697    1.7245301415
C        3.8530004074   -3.8190121837    2.6627289632
C        2.8994855735   -3.5111968232    1.5134336150
N        5.0428510395   -4.5205965214    2.1774560379
O        1.7900485884   -2.7713678847    2.0757057944
Cl       2.4522895951   -0.1006842323    0.9326916449
Cl      -0.4789510223   -4.6369552622    1.5828344800
H       -1.7852776026   -0.9484191928   -1.3293693282
H        0.2346227887    0.4124701454   -0.7919129995
H       -2.0957023296   -3.1854215870   -0.2714944027
H        6.9786304757   -1.6286333100    1.7722386761
H        5.1732613030   -1.7150146130    1.5703867923
H        5.4107437695   -3.3451162569   -0.3272464700
H        7.2325036283   -3.2547608294   -0.2019870673
H        7.1171881758   -4.0807372804    2.1413316218
H        4.0820594662   -2.8862899259    3.1974628668
H        3.3287666297   -4.4751379469    3.3645685124
H        2.5372298856   -4.4378364348    1.0557754051
H        3.3825867670   -2.9038856538    0.7413876293
H        5.3676339419   -5.1519102758    2.9001723236
28   
Generated by ForceBalance from scan.xyz: Frame 23 of 24
C        2.3048091294    2.8893250470    5.5875223738
C        1.3820433634    1.9783348927    6.1047582726
C        3.1284171906    2.5280171416    4.5205042646
C        2.1324989063    0.2923807914    4.4959851870
C        1.2955617602    0.6998566542    5.5531675415
C        3.0373473582    1.2420464817    3.9852746175
C        6.8315121470   -3.4462521736    6.5486815717
C        6.9403938655   -2.3005702523    5.5513530730
C        6.0220306298   -3.4643858152    5.2763546083
C        4.0956640777   -2.1302549312    4.5230609569
C        2.5782347689   -2.0488926180    4.6665896663
N        4.5743436111   -3.2835504606    5.3059190182
O        2.0214106890   -0.9391638871    3.9214013132
Cl       0.0839268531   -0.4064884767    6.1680845561
Cl       4.0621321421    0.8105226517    2.6342315329
H        2.3736332074    3.8873504772    6.0099217742
H        0.7210711855    2.2545808286    6.9197840142
H        3.8390379188    3.2321697129    4.1003054998
H        7.6631882101   -4.1384607543    6.6480800627
H        6.2809524432   -3.2469586807    7.4628423800
H        6.4998292846   -1.3546221574    5.8488192288
H        7.8405275938   -2.2077566177    4.9513755401
H        6.3853552817   -4.1395862450    4.4994967156
H        4.3667005783   -2.1740573986    3.4573734474
H        4.5378137184   -1.2179478458    4.9288848773
H        2.3056406623   -1.9811657039    5.7228267361
H        2.0906352799   -2.9318946061    4.2435853267
H        4.1681176749   -4.1017598898    4.8554681620
28   
Generated by ForceBalance from scan.xyz: Frame 24 of 24
C        2.3664422846    2.9033808084    5.5193513796
C        1.4729699422    2.0051027080    6.1056097025
C        3.1297150766    2.5181145678    4.4164676166
C        2.1327821483    0.2837586988    4.4945959598
C        1.3552714417    0.7153300913    5.5870471041
C        3.0083342185    1.2212168103    3.9147399325
C        6.8281723469   -3.6141252793    6.5079149080
C        6.8586356592   -2.2413462124    5.8521974154
C        6.0669538836   -3.3630747198    5.2306119028
C        4.0966077167   -2.1322478224    4.4850695197
C        2.5865220035   -2.0535335850    4.6933215293
N        4.6169932188   -3.2746494495    5.2567872410
O        1.9907412146   -0.9598015413    3.9538887327
Cl       0.1778592049   -0.3749614605    6.2909788710
Cl       3.9566328171    0.7599142431    2.5185145462
H        2.4590198481    3.9100010308    5.9160335345
H        0.8578992864    2.2997959711    6.9495907977
H        3.8164823525    3.2118843000    3.9427376927
H        7.7195960546   -4.2337782534    6.4657777024
H        6.2339381254   -3.7130936023    7.4107137464
H        6.3042610285   -1.4525820595    6.3515339339
H        7.7667084871   -1.9160571681    5.3541420345
H        6.5070565882   -3.7784425167    4.3200916630
H        4.3211539064   -2.1864684143    3.4089327171
H        4.5610331585   -1.2181546747    4.8627580938
H        2.3609299484   -1.9674920930    5.7591952245
H        2.0852865334   -2.9462912315    4.3090275191
H        4.2526706026   -4.1088164810    4.7979353454
