29   

C        1.1737981872   -1.0437479830    0.1871713550
C        1.5359117039   -2.1914455657    0.8948165480
C        1.0123724994    0.1668159924    0.8650484098
C        1.7281450046   -2.1279503342    2.2791406541
C        1.1999698244    0.2265164354    2.2513327840
C        1.9414812280   -0.1054455260    6.4290097573
C        2.8856773776   -1.1619405688    6.1909935264
C        1.5456123154   -0.9251809482    2.9872827580
C        1.2015942392    0.0118984549    5.2870464126
C       -0.0428085619    0.8342774760    5.2069153462
C       -2.2483067584    1.4706726123    4.3055593258
C       -1.4021903375   -0.8423477574    3.9394479340
N        2.7132778504   -1.6383660422    4.9856193822
N        1.7321341875   -0.8968843487    4.3879068174
N       -1.1475102482    0.5180650140    4.4048414607
O       -0.1681579353    1.7764317741    5.9949470229
H        1.0273430259   -1.0912694395   -0.8863073292
H        1.6710747712   -3.1326092237    0.3731764612
H        0.7473593819    1.0634755135    0.3157493583
H        2.0128802764   -3.0249843739    2.8186514498
H        1.0893104998    1.1820927885    2.7500060442
H        1.7921650520    0.4341068132    7.3573242354
H        3.6072026491   -1.5313224275    6.9105774771
H       -2.8542487777    1.2625798031    3.4180045592
H       -1.8642416045    2.4917493090    4.2092839330
H       -2.8834994298    1.4111945752    5.1949709915
H       -2.4547157689   -1.0996502089    4.0952288042
H       -0.8153874380   -1.5753561652    4.5011145326
H       -1.1801719216   -0.9364374951    2.8722930621
29   

C        1.1639811207   -1.0078246067    0.1712672271
C        1.5425468322   -2.1529863141    0.8740753195
C        0.9909025152    0.1983545282    0.8535096230
C        1.7384986181   -2.0916232143    2.2580394366
C        1.1827904309    0.2561207351    2.2391272188
C        1.8416430320   -0.1680515311    6.4564804719
C        2.7891380181   -1.2227025284    6.2199879290
C        1.5438129889   -0.8935880633    2.9715873537
C        1.1649125257    0.0005662406    5.2839304068
C       -0.0354678080    0.8745839356    5.1241344206
C       -2.2579328297    1.4497814724    4.2111496538
C       -1.4207530140   -0.8932238265    4.0188954096
N        2.6758007767   -1.6443281206    4.9867837333
N        1.7287160745   -0.8712500517    4.3734629259
N       -1.1705002682    0.4950785037    4.3962619904
O       -0.0809562703    1.9386467130    5.7490483772
H        1.0139791019   -1.0535299564   -0.9017873142
H        1.6868929514   -3.0908095886    0.3489425650
H        0.7139210932    1.0938475339    0.3081850650
H        2.0343124760   -2.9879788878    2.7926100510
H        1.0657586469    1.2113853724    2.7366749056
H        1.6595964899    0.3468727825    7.3926217760
H        3.4730391163   -1.6274159027    6.9570986123
H       -2.8671920278    1.1699717393    3.3458455402
H       -1.8622189184    2.4531805806    4.0217615791
H       -2.8932254864    1.4787549489    5.1018666300
H       -2.4748406447   -1.1408432719    4.1795284431
H       -0.8382295158   -1.5873158063    4.6324353918
H       -1.1841981398   -1.0557150621    2.9629588816
29   

C        1.1454391638   -0.9761080660    0.1833819434
C        1.5224090251   -2.1164204702    0.8945810452
C        0.9904971927    0.2385451555    0.8541972339
C        1.7331763439   -2.0420002816    2.2758401045
C        1.1983811246    0.3098662007    2.2366717661
C        1.7945348995   -0.1589855460    6.4883450767
C        2.7295513215   -1.2269376480    6.2587796646
C        1.5558639933   -0.8350580068    2.9794748391
C        1.1735022961    0.0527941478    5.2934849039
C        0.0269390464    0.9823926843    5.0549213552
C       -2.2091842146    1.5285836309    4.1407114315
C       -1.4301034082   -0.8460137164    4.1711797061
N        2.6590745073   -1.6105032864    5.0094423446
N        1.7509629454   -0.8029417044    4.3808963546
N       -1.1522630585    0.5645665549    4.4265726624
O        0.0913661450    2.1411820182    5.4759504359
H        0.9830692450   -1.0318067726   -0.8873777460
H        1.6534533897   -3.0608739621    0.3779832676
H        0.7158567160    1.1308884119    0.3025124596
H        2.0261615192   -2.9359801428    2.8158026034
H        1.0991385477    1.2745791245    2.7194938380
H        1.5941907689    0.3433736956    7.4272628783
H        3.3766914151   -1.6651725878    7.0097823618
H       -2.7899728167    1.2059486387    3.2707540081
H       -1.7892495517    2.5115824127    3.9033282459
H       -2.8774654671    1.6249422626    5.0018867666
H       -2.4922347503   -1.0552740508    4.3331917223
H       -0.8722254665   -1.4944532329    4.8540489256
H       -1.1773408009   -1.1069131835    3.1388328233
29   

C        1.1773522248   -0.9942783564    0.1561688708
C        1.5429844706   -2.1489171198    0.8496019035
C        1.0553291193    0.2153022384    0.8422300167
C        1.7733619008   -2.0939876524    2.2287059897
C        1.2841489989    0.2676053685    2.2221335644
C        1.8058550980   -0.3615989224    6.4940797939
C        2.7304938699   -1.4334931319    6.2402750211
C        1.6279853348   -0.8922531460    2.9491126691
C        1.2447127771   -0.0707515946    5.2871170736
C        0.1549721515    0.9173344362    5.0037230148
C       -2.0969059166    1.4841220859    4.1209637225
C       -1.3954609218   -0.9088406457    4.3140741301
N        2.7070709219   -1.7418747540    4.9681322926
N        1.8384089579   -0.8837426295    4.3497872294
N       -1.0736397571    0.5060135759    4.4754406741
O        0.3357994361    2.1149169581    5.2399922055
H        0.9987983750   -1.0347901023   -0.9126722038
H        1.6494761134   -3.0897004632    0.3208714304
H        0.7906640718    1.1191503337    0.3045609438
H        2.0559358316   -3.0001407094    2.7535895280
H        1.2142881840    1.2314859786    2.7116499540
H        1.5832760750    0.0972072053    7.4498660766
H        3.3393734278   -1.9261025363    6.9895697831
H       -2.6219239256    1.1652851734    3.2149417826
H       -1.6587515501    2.4649194428    3.9101720275
H       -2.8193037771    1.5880576336    4.9362303362
H       -2.4677683993   -1.0714407990    4.4617567958
H       -0.8750600617   -1.5242431748    5.0548593870
H       -1.1250612563   -1.2500909152    3.3098426979
29   

C        1.2177391969   -1.0011173387    0.1140947360
C        1.5974245125   -2.1461443918    0.8153673205
C        1.0793048977    0.2107778719    0.7924964176
C        1.8245840851   -2.0794181524    2.1944729579
C        1.3056507431    0.2749939400    2.1723270733
C        1.7024408822   -0.4469933175    6.4753093040
C        2.6633404809   -1.4867552621    6.2237941588
C        1.6627191621   -0.8753069013    2.9084394148
C        1.2135677790   -0.1039027503    5.2510641705
C        0.1515225683    0.9037023445    4.9194406818
C       -2.1453026492    1.4453094178    4.1289313963
C       -1.4526432584   -0.9386733166    4.4723940249
N        2.7232210544   -1.7279322029    4.9383513101
N        1.8712832429   -0.8589279695    4.3103314219
N       -1.1158577138    0.4813457649    4.5072342162
O        0.4045305853    2.1100874189    4.9669861610
H        1.0413695725   -1.0505263907   -0.9547029461
H        1.7172150732   -3.0887663238    0.2928546769
H        0.8045167777    1.1081305334    0.2490849433
H        2.1176548707   -2.9794584112    2.7239465046
H        1.2265168838    1.2431556467    2.6510650656
H        1.4210883169   -0.0359041475    7.4371095036
H        3.2392130643   -2.0045663088    6.9821315982
H       -2.2405347583    1.4803013989    3.0391742016
H       -1.9135923832    2.4523820890    4.4893442181
H       -3.1088367357    1.1612821757    4.5632294525
H       -2.5330885515   -1.0797649713    4.5749653225
H       -0.9785381177   -1.4790552614    5.2979924907
H       -1.1322472208   -1.3804946396    3.5233433116
29   

C        1.3473677016   -1.0828283278    0.0207573788
C        1.7223797208   -2.2035489904    0.7620863235
C        1.1815821270    0.1452675649    0.6622799468
C        1.9182890282   -2.0958191504    2.1434517728
C        1.3766026362    0.2500099686    2.0444607431
C        1.6085271028   -0.4672305403    6.3885371909
C        2.6124493242   -1.4722380425    6.1708094161
C        1.7299601318   -0.8738930954    2.8211885787
C        1.1899171973   -0.1014393362    5.1446022832
C        0.1405804474    0.9081074520    4.7721946150
C       -2.2073632743    1.4634960270    4.1826879210
C       -1.5483204492   -0.9059500303    4.6865678404
N        2.7575814476   -1.6752496883    4.8860214827
N        1.9169162870   -0.8176668693    4.2259872598
N       -1.1767349498    0.4991927578    4.5546532937
O        0.4462165882    2.0917545157    4.6070035900
H        1.1962145523   -1.1631641680   -1.0499887082
H        1.8634964775   -3.1589281071    0.2689957263
H        0.9112537064    1.0249482727    0.0886000823
H        2.2091916115   -2.9784139644    2.7024538498
H        1.2816927800    1.2315136064    2.4889282115
H        1.2624708903   -0.0862800015    7.3414877745
H        3.1579704521   -1.9928356734    6.9494033890
H       -2.3400398825    1.4695539061    3.0963592500
H       -1.9469924156    2.4748394315    4.5109134219
H       -3.1592588006    1.2063338521    4.6575597661
H       -2.6219803045   -1.0048912779    4.8739599411
H       -1.0305760066   -1.3761481187    5.5284094034
H       -1.3029711823   -1.4476506694    3.7672494465
29   

C        1.5948086165   -1.1314932090   -0.1230959803
C        1.8735524781   -2.2567452218    0.6527314971
C        1.4355364275    0.1094286090    0.4945047580
C        1.9794996878   -2.1395116323    2.0432508588
C        1.5419597470    0.2229309738    1.8856800689
C        1.4482481104   -0.5482034075    6.2533924514
C        2.4848383396   -1.5268128373    6.0811849577
C        1.7957307942   -0.9027476974    2.6957442036
C        1.1108955451   -0.1518180714    4.9932783361
C        0.0592284850    0.8472490384    4.6035484399
C       -2.3206967185    1.4849976734    4.3322650637
C       -1.7126016439   -0.8470068729    5.0212708458
N        2.7197865775   -1.6928993358    4.8052974657
N        1.9070760131   -0.8366558515    4.1082084460
N       -1.2934585185    0.5069623504    4.6734307591
O        0.3782588206    1.9764862922    4.2209970149
H        1.5143893511   -1.2180885435   -1.2009360910
H        2.0109058433   -3.2225374887    0.1793967581
H        1.2415668182    0.9929165977   -0.1036719013
H        2.1990853492   -3.0253553785    2.6288501592
H        1.4663497143    1.2131021435    2.3101506781
H        1.0289306052   -0.2022124295    7.1900480141
H        2.9879121652   -2.0563284510    6.8820238780
H       -2.5416275390    1.4425910011    3.2613079072
H       -2.0001843085    2.4996911107    4.5901688257
H       -3.2378904395    1.2827939053    4.8943839122
H       -1.8834182747   -0.9271217639    6.0991771144
H       -0.9664449100   -1.5893629537    4.7208963811
H       -2.6386484027   -1.1013047080    4.4960113664
29   

C        1.7710604142   -1.1430317023   -0.2347683823
C        1.9396221469   -2.2804913044    0.5552501976
C        1.6576825068    0.1081794190    0.3729633218
C        1.9791402599   -2.1641567902    1.9492675847
C        1.7010181241    0.2203526929    1.7678306896
C        1.3234727048   -0.6494590845    6.1307724547
C        2.4134160770   -1.5713046502    5.9822880511
C        1.8379651757   -0.9158510250    2.5891433812
C        1.0225179113   -0.2308855503    4.8669839108
C       -0.0455616581    0.7431753639    4.4728855156
C       -2.4143039538    1.4717884147    4.4737291082
C       -1.8022865438   -0.8111177379    5.3052526793
N        2.7158615811   -1.6863348139    4.7158680151
N        1.8956230142   -0.8500845275    4.0033158437
N       -1.3848978456    0.4828906190    4.7757217943
O        0.2399787320    1.8000665705    3.9018810902
H        1.7417749744   -1.2286779792   -1.3152411311
H        2.0440435737   -3.2545093121    0.0905067043
H        1.5499901004    0.9998024135   -0.2346795361
H        2.1165584366   -3.0571720785    2.5487836014
H        1.6733092263    1.2136314005    2.1920911686
H        0.8505362533   -0.3484496290    7.0573143960
H        2.9046516923   -2.0992487166    6.7914654672
H       -2.7677909942    1.3480812021    3.4454958020
H       -2.0296238623    2.4893040785    4.5989848601
H       -3.2607713965    1.3595208605    5.1585729501
H       -1.8027698353   -0.7932166438    6.3993931941
H       -1.1446787631   -1.6147144223    4.9584233025
H       -2.8104434387   -1.0547842664    4.9551962331
29   

C        1.8731366304   -1.2133555715   -0.2512377332
C        3.0025219201   -1.5391378714    0.5010790454
C        0.6760262088   -0.9051473662    0.3969931648
C        2.9329842349   -1.5526212334    1.8988077828
C        0.6108548947   -0.9133159768    1.7954385964
C        1.1145699341   -1.0142014214    6.1068991343
C        2.1168543302   -2.0364830288    5.9716027557
C        1.7430856736   -1.2256004005    2.5779363897
C        0.9058705891   -0.5408580848    4.8435311090
C        0.1120838850    0.6510356256    4.4087066115
C       -1.9427110601    2.0343477415    4.4716680001
C       -1.9304478995   -0.2417890010    5.5190229594
N        2.4656110950   -2.1453334253    4.7157373721
N        1.7121578722   -1.2573757605    3.9944477526
N       -1.2155258234    0.8162904290    4.8137613712
O        0.6328949512    1.5145926555    3.7006846186
H        1.9250344153   -1.2017641501   -1.3341187033
H        3.9357192558   -1.7797301105    0.0044533943
H       -0.2062743632   -0.6602350610   -0.1834041266
H        3.8187124199   -1.8058768365    2.4707883557
H       -0.3401970526   -0.6906614217    2.2603154894
H        0.6846187511   -0.6508095588    7.0317578493
H        2.5391259790   -2.6126627627    6.7867813072
H       -2.4248125245    1.9265693545    3.4952746860
H       -1.2705624181    2.8984050401    4.4437888509
H       -2.7068933717    2.2444509841    5.2267009553
H       -1.8032478144   -0.1327216259    6.6004954789
H       -1.5776793854   -1.2315515523    5.2115540094
H       -2.9987791877   -0.1981016372    5.2841508039
29   

C        1.9625779845   -1.2952201970   -0.2717922698
C        3.0938144337   -1.5121751547    0.5166038484
C        0.7251114228   -1.0803351071    0.3380664998
C        2.9852922646   -1.5110229040    1.9118682827
C        0.6212950953   -1.0724819200    1.7343234096
C        0.9848953925   -1.0989086119    6.0518406130
C        2.0298547659   -2.0806814705    5.9480298514
C        1.7529997734   -1.2752118495    2.5510857148
C        0.8075588372   -0.6158368565    4.7854583254
C        0.0318693726    0.5782836466    4.3326258500
C       -1.9026028331    2.1151939792    4.4971587160
C       -1.9508788273   -0.0781161674    5.6998117010
N        2.4397566355   -2.1547261749    4.7091427168
N        1.6818332730   -1.2894420980    3.9657088271
N       -1.2271041533    0.8751587044    4.8662178068
O        0.4936794417    1.3300982378    3.4714707121
H        2.0446852861   -1.2947327899   -1.3528186821
H        4.0581047712   -1.6790566039    0.0501188129
H       -0.1575806680   -0.9186742350   -0.2700535583
H        3.8710886985   -1.6796239564    2.5140606301
H       -0.3537625003   -0.9177502270    2.1777124824
H        0.5196640655   -0.7581392252    6.9677661587
H        2.4391877677   -2.6509625123    6.7738885746
H       -2.4620344563    1.9801615442    3.5664490744
H       -1.1811753107    2.9285107228    4.3653923924
H       -2.5936808031    2.4216844923    5.2887949590
H       -1.7256844477    0.0904797483    6.7573486860
H       -1.6975742479   -1.1091868753    5.4329618506
H       -3.0297179266    0.0315901938    5.5496509745
29   

C        2.1890476458   -1.5700468005   -0.1653550241
C        3.2987760876   -1.6410131853    0.6786683466
C        0.9092874559   -1.4550679360    0.3818679165
C        3.1261846805   -1.5939094411    2.0666082504
C        0.7412420374   -1.4006637927    1.7709607404
C        0.8900675182   -1.2537646834    6.0908241994
C        1.9789249312   -2.1904047923    6.0529356796
C        1.8486395156   -1.4548082441    2.6412542644
C        0.7604808170   -0.7808675991    4.8125864785
C        0.0067297344    0.4053014798    4.3073603893
C       -1.7969579870    2.0911590154    4.4691394276
C       -1.9124012292    0.0252660014    5.8676537195
N        2.4656986470   -2.2461550646    4.8425272990
N        1.7132889139   -1.4207112316    4.0503966737
N       -1.1764994064    0.8466721421    4.9137435309
O        0.3959766508    1.0184575997    3.3103786921
H        2.3207076652   -1.6046956419   -1.2408743292
H        4.2953020012   -1.7298559364    0.2611603169
H        0.0439958123   -1.4056338107   -0.2690874558
H        3.9940952502   -1.6498555425    2.7140592552
H       -0.2607735994   -1.3198523714    2.1728993147
H        0.3783976925   -0.9269250138    6.9859929844
H        2.3643982368   -2.7393309283    6.9043539999
H       -2.3983313418    1.9161483736    3.5717537394
H       -1.0352281358    2.8462156057    4.2475950975
H       -2.4390825572    2.4999103402    5.2557907500
H       -1.6017399955    0.2553868429    6.8913681940
H       -1.7635806477   -1.0406324759    5.6674817537
H       -2.9870416925    0.2147562667    5.7794099030
29   

C        2.7420117166   -0.9867773263   -0.0930225259
C        2.7254376204    0.0359211053    0.8584204388
C        2.2625912768   -2.2540395333    0.2441860440
C        2.2196676596   -0.2065564917    2.1415884277
C        1.7648359888   -2.4939071424    1.5298792161
C        0.5217643502   -1.5770175960    5.8752412950
C        1.2578279638   -2.7951289626    5.6852729291
C        1.7141935372   -1.4726267510    2.4967084984
C        0.5018802141   -0.9512793892    4.6548423656
C       -0.3477061885    0.1682939285    4.1472933270
C       -1.9737585857    2.0110474904    4.4251662763
C       -0.7311186726    1.1696015360    6.4148539725
N        1.6251444743   -2.8929998927    4.4376723015
N        1.2167671990   -1.7581934030    3.7907118083
N       -1.0411571329    1.0430141841    4.9967787783
O       -0.4298266536    0.3979882272    2.9376911475
H        3.1260458548   -0.7981443198   -1.0890864237
H        3.1013420945    1.0200228408    0.6034276032
H        2.2728443662   -3.0527856014   -0.4887083570
H        2.2175970752    0.5960258074    2.8687082416
H        1.3964308876   -3.4810249873    1.7854752384
H        0.0056372568   -1.3155854239    6.7878147981
H        1.4447591322   -3.5411117801    6.4490793964
H       -2.6847109422    2.3528948675    5.1840461326
H       -2.5559402278    1.5551965233    3.6172568915
H       -1.4297765522    2.8748113758    4.0304924894
H        0.3328261296    0.9903945312    6.5998112379
H       -1.3372686492    0.4745291207    7.0038864527
H       -0.9408350368    2.1873498575    6.7595395708
29   

C        2.7496576657   -0.9420416998   -0.0462679445
C        2.5591394573    0.0893480191    0.8758697581
C        2.4208223102   -2.2528355152    0.3038519070
C        2.0308139965   -0.1890491266    2.1424028952
C        1.8999992206   -2.5281819308    1.5732401387
C        0.3565483348   -1.6775391985    5.8404174378
C        1.1440703291   -2.8686702505    5.6810475246
C        1.6772491158   -1.5026319324    2.5115282467
C        0.3790611164   -1.0498206716    4.6238956977
C       -0.4803542886    0.0571704468    4.1083579227
C       -1.9463165041    2.0252061150    4.4215302860
C       -0.5030325471    1.2515674818    6.3073368896
N        1.5794983144   -2.9437567833    4.4522940838
N        1.1583423117   -1.8218538512    3.7898414179
N       -0.9987273887    1.0489809532    4.9510547820
O       -0.7360489795    0.1454218243    2.9048340872
H        3.1517612146   -0.7263645726   -1.0296679501
H        2.8185181299    1.1079141224    0.6109708908
H        2.5655546311   -3.0585851299   -0.4068443380
H        1.9000016283    0.6252310525    2.8437874652
H        1.6478316065   -3.5494292588    1.8360263794
H       -0.2178853516   -1.4221262676    6.7206091107
H        1.3199077811   -3.6122118893    6.4498457053
H       -2.5405867621    2.4592401217    5.2318890280
H       -2.6452940018    1.5482159850    3.7262968874
H       -1.4141623490    2.8266012108    3.8998281584
H        0.5470725099    0.9541270419    6.3919833285
H       -1.1057863279    0.6856760107    7.0242189111
H       -0.5517638505    2.3125065513    6.5729959280
29   

C        2.7491967215   -0.8179947697    0.0333204554
C        2.4327781295    0.2010325688    0.9338042265
C        2.5432595025   -2.1500606118    0.3959890937
C        1.9018737084   -0.1115242986    2.1911041435
C        2.0192943416   -2.4593954013    1.6562784658
C        0.2473073568   -1.7243923116    5.8556301163
C        1.0924923460   -2.8790641950    5.7176707650
C        1.6719845265   -1.4493195386    2.5738117977
C        0.3014002958   -1.0834634010    4.6494969952
C       -0.5526318550    0.0291167103    4.1342942633
C       -1.8486642339    2.1144408566    4.4559358186
C       -0.2841817843    1.3338429180    6.2454014063
N        1.5938250185   -2.9132854184    4.5110706139
N        1.1515583578   -1.8024286367    3.8430418466
N       -0.9114134299    1.1095449692    4.9478131096
O       -0.9594893640    0.0132212175    2.9705622574
H        3.1540898996   -0.5761909491   -0.9428724259
H        2.5978008133    1.2367099627    0.6595193206
H        2.7860006300   -2.9465822430   -0.2982319936
H        1.6802812120    0.6992543534    2.8728663819
H        1.8626931461   -3.4977137896    1.9265881065
H       -0.3714632126   -1.4863356582    6.7111649700
H        1.2646049894   -3.6257473499    6.4842593332
H       -2.3692580496    2.5904934679    5.2929357216
H       -2.6126971651    1.6570823657    3.8184610121
H       -1.3175531293    2.8804616167    3.8827452652
H        0.7422508083    0.9534403016    6.2597898947
H       -0.8630096471    0.8508263764    7.0386055065
H       -0.2270249140    2.4064178619    6.4570463342
29   

C        2.7665805494   -0.7653479057    0.1282793565
C        2.3336976317    0.2277669825    1.0084136738
C        2.6853309014   -2.1065238435    0.5054966309
C        1.8114659384   -0.1201544807    2.2598927100
C        2.1687184122   -2.4512277644    1.7596695454
C        0.2125666599   -1.8669729365    5.8991231870
C        1.1247347820   -2.9718113407    5.7757904279
C        1.7060921959   -1.4699981738    2.6580631627
C        0.2767980633   -1.2081992148    4.7051343263
C       -0.5889520402   -0.0975406828    4.1991355012
C       -1.7205790951    2.0869694360    4.5040076157
C       -0.0285455230    1.3067659038    6.1780140433
N        1.6769708128   -2.9543681125    4.5902829167
N        1.1959826240   -1.8599714072    3.9214251208
N       -0.7894879182    1.0590882150    4.9583088660
O       -1.1541739580   -0.2030682764    3.1093466093
H        3.1659717650   -0.4962108546   -0.8430648417
H        2.4032266908    1.2714125081    0.7233448161
H        3.0197145945   -2.8832902036   -0.1728844552
H        1.5070501656    0.6787475831    2.9226891317
H        2.1098204023   -3.4973111061    2.0390527239
H       -0.4408609475   -1.6604280127    6.7373622006
H        1.3096542819   -3.7205488736    6.5373759010
H       -2.1661462725    2.5997726644    5.3623081846
H       -2.5426422256    1.6485189010    3.9286543887
H       -1.2008940718    2.8198766246    3.8794210013
H        0.9707675494    0.8635149274    6.1189613970
H       -0.5548272977    0.8971015310    7.0456880411
H        0.1093486205    2.3826574055    6.3258059750
29   

C        2.6904903541   -0.6341018584    0.1097770419
C        1.3187717466   -0.4488608666    0.2881219507
C        3.4369959154   -1.2612586048    1.1076593672
C        0.6971436121   -0.8791607036    1.4664859562
C        2.8121608195   -1.6869434905    2.2852665448
C       -0.0710073010   -1.9974568254    5.7200146264
C        0.7399446998   -3.1610604907    5.5002764905
C        1.4337644995   -1.4858795114    2.5025973002
C        0.0332006179   -1.2568449377    4.5782598119
C       -0.6284140867    0.0574184245    4.2958157052
C       -1.0906077390    2.4177559215    4.8943256635
C        0.6622381150    1.1277843609    6.1353280650
N        1.2854989092   -3.0930517526    4.3144125825
N        0.8466647000   -1.9444739466    3.7077947572
N       -0.3786957209    1.1631457990    5.1133927712
O       -1.4220966647    0.1793742016    3.3577346148
H        3.1704937177   -0.3044547859   -0.8048521254
H        0.7271607416    0.0165454391   -0.4923987975
H        4.5003204440   -1.4229431249    0.9705405755
H       -0.3758727424   -0.7728085774    1.5350996470
H        3.4054435688   -2.1778423187    3.0486880996
H       -0.6483134937   -1.7676195921    6.6069470435
H        0.8872040769   -3.9674677674    6.2093798117
H       -1.1673606675    2.9787382429    5.8310909945
H       -2.1112626235    2.2338879706    4.5429834193
H       -0.5632516474    3.0278820241    4.1546261588
H        1.4736438120    0.4484789718    5.8548760079
H        0.2434048888    0.8113056555    7.0954692472
H        1.1083333270    2.1203471457    6.2541064461
29   

C        2.6615060050   -0.4987743103    0.2657597693
C        1.3000554755   -0.2753653593    0.4736185569
C        3.3928511801   -1.2224548578    1.2076814146
C        0.6739651813   -0.7632290740    1.6266867917
C        2.7635934991   -1.7089011376    2.3591717881
C       -0.2096679786   -2.1292125528    5.7537304667
C        0.6672989312   -3.2475824218    5.5486955051
C        1.3953505282   -1.4738304133    2.6077276368
C       -0.0835061521   -1.3596964462    4.6353602116
C       -0.7724555528   -0.0572251584    4.3434924891
C       -1.0515937902    2.3744265864    4.7351570497
C        0.8004817794    1.1206423556    5.8672247475
N        1.2690201473   -3.1236242016    4.3940402177
N        0.8049128516   -1.9821670550    3.7929969639
N       -0.3626765031    1.1131876530    4.9858215006
O       -1.7060948214   -0.0077137179    3.5378058060
H        3.1451666152   -0.1223774049   -0.6287255184
H        0.7195754165    0.2663889739   -0.2649881394
H        4.4485585114   -1.4109834162    1.0476688547
H       -0.3918539556   -0.6126272275    1.7142142114
H        3.3486290495   -2.2712343954    3.0784625970
H       -0.8370858854   -1.9438097936    6.6167671421
H        0.8183279141   -4.0633553324    6.2462035361
H       -0.9871406464    3.0227113572    5.6147460594
H       -2.1147669559    2.2092229327    4.5321216483
H       -0.6010418485    2.8872957490    3.8798615399
H        1.5343412494    0.3642568759    5.5715126440
H        0.4947939844    0.9377196548    6.9019165612
H        1.3076691153    2.0891612400    5.8137455688
29   

C        2.5649624177   -0.2870960917    0.4779893542
C        1.2080056682   -0.0651032065    0.7158818093
C        3.2970409478   -1.0886785494    1.3541872064
C        0.5871120121   -0.6317855969    1.8351517732
C        2.6736248644   -1.6552441319    2.4715648376
C       -0.3609870673   -2.2752633377    5.8150112598
C        0.5590032146   -3.3561554399    5.5901295461
C        1.3111637907   -1.4241492280    2.7513049920
C       -0.2064912526   -1.4432217280    4.7471847257
C       -0.9112521340   -0.1459593094    4.4653310482
C       -1.0007244754    2.3324157371    4.5857653864
C        0.9521722467    1.0815889455    5.5482681256
N        1.2044237494   -3.1559669570    4.4692807028
N        0.7277699842   -1.9998659459    3.9088703224
N       -0.3346190368    1.0629927876    4.8598701741
O       -1.9747776908   -0.1378004425    3.8403775780
H        3.0452043615    0.1521390353   -0.3893267892
H        0.6281551027    0.5392540299    0.0270037284
H        4.3493663180   -1.2745075545    1.1701210895
H       -0.4758493924   -0.4693009506    1.9516601468
H        3.2597400516   -2.2750154578    3.1412136781
H       -1.0317363574   -2.1537088896    6.6566256327
H        0.7067622717   -4.2019161058    6.2517026437
H       -0.8324098459    3.0369271255    5.4061715602
H       -2.0835195965    2.2028752552    4.4899219730
H       -0.6141577416    2.7656619589    3.6580717494
H        1.0362704118    0.2507482572    6.2556917970
H        1.0687880247    2.0055475472    6.1230096573
H        1.7683612791    1.0170355758    4.8213281966
29   

C        2.5195859497   -0.1958248563    0.6064845867
C        1.1574622653   -0.0135027304    0.8502607092
C        3.2744951090   -0.9948430035    1.4659625255
C        0.5539008081   -0.6169274399    1.9597044962
C        2.6688407352   -1.5982458252    2.5737036096
C       -0.4553529608   -2.4056337829    5.8291920808
C        0.5166146966   -3.4436418284    5.6159508026
C        1.3023352833   -1.4062039722    2.8594287368
C       -0.2625598471   -1.5171608891    4.8148237542
C       -0.9730050314   -0.2187900299    4.5643216072
C       -0.9752334266    2.2685893374    4.5005695774
C        1.0298251301    1.0241931510    5.3459237043
N        1.2242567993   -3.1702056816    4.5489132892
N        0.7359187914   -2.0097754997    4.0101018349
N       -0.3191616821    0.9963552972    4.7886129747
O       -2.1226996172   -0.2166835826    4.1173351724
H        2.9868579116    0.2725828937   -0.2526585924
H        0.5615171308    0.5896214675    0.1741395251
H        4.3309627411   -1.1495050706    1.2766007409
H       -0.5129475080   -0.4820592393    2.0877663819
H        3.2709925971   -2.2149346738    3.2320418000
H       -1.1768934286   -2.3414320518    6.6344687486
H        0.6552166973   -4.3120758705    6.2495480029
H       -0.7831596300    2.9854875197    5.3048376144
H       -2.0611188027    2.1579065926    4.4203479073
H       -0.5970187612    2.6781176682    3.5587135097
H        1.1705227712    0.2274820739    6.0834005538
H        1.2140781343    1.9730360728    5.8592691480
H        1.7711835286    0.9101112198    4.5484662371
29   

C        2.4917607777   -0.1853969506    0.6537648629
C        1.1289358778   -0.0171038502    0.9048593547
C        3.2608141829   -0.9736803363    1.5110110227
C        0.5387559086   -0.6240151789    2.0195784686
C        2.6683889036   -1.5812435036    2.6236173477
C       -0.5426447097   -2.4975077268    5.7931795938
C        0.4584372844   -3.5110517047    5.5960543136
C        1.3018965628   -1.4029745727    2.9155845029
C       -0.3044776188   -1.5586529115    4.8350289968
C       -1.0105165632   -0.2511427580    4.6457890308
C       -0.9971424973    2.2271591269    4.4742334693
C        1.0716709982    1.0113982451    5.1795468192
N        1.2253946741   -3.1807412157    4.5877578733
N        0.7459152466   -2.0083626394    4.0691247716
N       -0.3217395234    0.9626143695    4.7465515194
O       -2.2195759183   -0.2362045782    4.3993686219
H        2.9490117631    0.2858935799   -0.2092245570
H        0.5230471170    0.5783622547    0.2307721095
H        4.3179016496   -1.1168206926    1.3159526319
H       -0.5281035381   -0.4986839136    2.1598066565
H        3.2796614826   -2.1901736825    3.2808974536
H       -1.3066942612   -2.4738508631    6.5608001863
H        0.5748939853   -4.4025658411    6.2014322512
H       -1.3368441664    2.6834537347    5.4089611565
H       -1.8601124670    2.0874895326    3.8153332020
H       -0.3134979358    2.9152066296    3.9668866107
H        1.3118894403    0.1788036070    5.8484149891
H        1.2615080563    1.9334270525    5.7380412560
H        1.7418247214    0.9821453167    4.3146279681
29   

C        0.8285946240   -1.7965531409    0.3697112545
C        0.0697890990   -2.2706503686    1.4415535873
C        1.8927763792   -0.9250810528    0.6069285854
C        0.3657717585   -1.8627627888    2.7475318075
C        2.1891167361   -0.5216126501    1.9135360969
C        1.6508278523   -0.1068240616    6.4780566907
C        2.9988993996   -0.0064767102    5.9880041124
C        1.4212317470   -0.9636254367    3.0081652868
C        0.8812775643   -0.3899416200    5.3891353612
C       -0.6118978269   -0.4657965447    5.3659277588
C       -2.8276942367    0.0782690650    4.4023257830
C       -0.7956631629    1.2890763819    3.5954813717
N        3.0132191983   -0.2201393228    4.6968205752
N        1.7330983056   -0.5135367663    4.3132439591
N       -1.3797433649    0.2516432808    4.4409105030
O       -1.1962928435   -1.1337085402    6.2242191178
H        0.5985716964   -2.1114004453   -0.6421956106
H       -0.7461389432   -2.9624858264    1.2635617845
H        2.4918141604   -0.5605039763   -0.2202810959
H       -0.2241080072   -2.2741529788    3.5577492797
H        3.0192609134    0.1556136890    2.0833143175
H        1.3115552008    0.0530309904    7.4946208925
H        3.8678862032    0.2336413450    6.5897109809
H       -3.3101602429    0.7602037286    5.1092135665
H       -3.1058947404   -0.9507258202    4.6528500257
H       -3.2058683870    0.2798039428    3.3950480656
H       -0.5722137769    0.8930679970    2.6000091832
H        0.1200278235    1.6965106442    4.0353444346
H       -1.4944549571    2.1248780246    3.4892668520
29   

C        0.8403558625   -1.7953389126    0.3554908574
C        0.0542603465   -2.2390951550    1.4210642420
C        1.9131774610   -0.9355377739    0.5972068125
C        0.3323051968   -1.8125312285    2.7252377411
C        2.1920739338   -0.5145915647    1.9020078920
C        1.6007787206   -0.1432501957    6.4680374077
C        2.9573603155   -0.0758724911    5.9978632262
C        1.3975543354   -0.9268765738    2.9888012405
C        0.8285750224   -0.3507885334    5.3626327906
C       -0.6643652449   -0.3104450103    5.3607007548
C       -2.8701293107    0.2229801543    4.3842612053
C       -0.8168303762    1.2629991570    3.4198820709
N        2.9788924525   -0.2352534333    4.6995900375
N        1.6935603540   -0.4650112989    4.2922380453
N       -1.4145244221    0.3164133111    4.3575069475
O       -1.2704062996   -0.7547579636    6.3405667141
H        0.6245240470   -2.1241696266   -0.6551144890
H       -0.7691564676   -2.9209214291    1.2391364251
H        2.5326962396   -0.5940308139   -0.2247949624
H       -0.2794525496   -2.1936262848    3.5341284783
H        3.0296089973    0.1521907008    2.0771213494
H        1.2554173751    0.0018868144    7.4850485453
H        3.8270515875    0.1076027151    6.6182018908
H       -3.2842138554    0.9505086191    5.0892793468
H       -3.1865970481   -0.7824517825    4.6812941555
H       -3.2824771931    0.4146891636    3.3885421426
H       -0.6564013201    0.7927371619    2.4449558868
H        0.1338642906    1.6539206848    3.7952244055
H       -1.4787590077    2.1241734061    3.2840573826
29   

C        0.8726206920   -1.7710407080    0.3557223799
C        0.0923763992   -2.2267276029    1.4209106717
C        1.9336759265   -0.8966970487    0.5981157071
C        0.3648869403   -1.7978673484    2.7256680765
C        2.2073160585   -0.4740197956    1.9034002942
C        1.6356216695   -0.2560155339    6.4841671228
C        2.9905023662   -0.1842098545    6.0114489545
C        1.4187005997   -0.8992299644    2.9891091352
C        0.8486586548   -0.3790486702    5.3747629033
C       -0.6385502552   -0.2458099821    5.4150934510
C       -2.8663125740    0.2413280385    4.4763737497
C       -0.8441107229    1.1833561010    3.3703985199
N        3.0021869353   -0.2591248182    4.7061106561
N        1.7112774910   -0.4421551600    4.2940416128
N       -1.4114329807    0.2891687950    4.3757827309
O       -1.2151247553   -0.4913273187    6.4788148774
H        0.6614711380   -2.1015577506   -0.6553352487
H       -0.7220707563   -2.9189045014    1.2378163934
H        2.5485351424   -0.5458544427   -0.2234851982
H       -0.2419896425   -2.1827677264    3.5365877319
H        3.0364376979    0.2026451449    2.0808866780
H        1.2999093009   -0.1509645042    7.5095640247
H        3.8661662013   -0.0535544174    6.6367363387
H       -3.2268730470    1.0287265954    5.1457572067
H       -3.1922046188   -0.7308033939    4.8612378314
H       -3.3217224363    0.3735720469    3.4897972879
H       -0.7366278072    0.6705797362    2.4099440209
H        0.1268349973    1.5772760840    3.6853468083
H       -1.4998925943    2.0479729104    3.2266290311
29   

C        0.9088703575   -1.7442751640    0.3592054633
C        0.1299043932   -2.2120183011    1.4203934146
C        1.9546559930   -0.8528810751    0.6067879658
C        0.3887182499   -1.7784344713    2.7265122655
C        2.2147044878   -0.4257412741    1.9133770828
C        1.6306093007   -0.3522692227    6.4976229199
C        2.9881991603   -0.2890695873    6.0329204304
C        1.4270083412   -0.8636032692    2.9942629423
C        0.8396798440   -0.3864030081    5.3829921666
C       -0.6360253400   -0.1487654662    5.4518281987
C       -2.8833158471    0.2753374084    4.5415579284
C       -0.8961312409    1.1201994868    3.3142005683
N        3.0022401261   -0.2829180525    4.7260955883
N        1.7089684218   -0.4093213094    4.3016038114
N       -1.4326200543    0.2812962804    4.3819817357
O       -1.1724074236   -0.1844767379    6.5623258979
H        0.7087823375   -2.0785507157   -0.6528740657
H       -0.6727095897   -2.9167094336    1.2329226746
H        2.5686960466   -0.4930187043   -0.2115393969
H       -0.2164708174   -2.1685068290    3.5364155312
H        3.0330305646    0.2623897918    2.0969545590
H        1.2980855635   -0.2809227685    7.5271146455
H        3.8645993909   -0.2170962064    6.6666246469
H       -3.2027868263    1.1299323085    5.1464956952
H       -3.2101106986   -0.6484943084    5.0305940281
H       -3.3752592681    0.3235016343    3.5649069360
H       -0.8295567868    0.5627201939    2.3754123927
H        0.0878363300    1.5211758504    3.5745680201
H       -1.5504269243    1.9828555313    3.1527554202
