36

C     -0.68959    0.08775   -0.53287
C     -1.61344    0.54777   -1.17823
C      1.49548   -1.04380   -0.40746
C      0.38110   -0.39575    1.63326
C      0.39313   -0.44897    0.23059
C      2.55964   -1.57578    0.32352
C      1.43273   -0.91697    2.39179
C      2.53206   -1.50995    1.73458
C      3.36673   -3.50045    3.02695
C     -2.40164    1.71703   -3.32273
C     -3.11103    0.39099   -3.25721
C     -2.69512    1.08684   -1.96368
C      3.71932   -2.19842   -0.42369
C      2.03793    0.53563    4.38036
C      3.67984   -2.09423    2.54987
C      1.37077   -0.76723    3.90041
O      3.02389   -3.80840    4.15175
O      3.49645   -4.42331    2.03427
H      1.51245   -1.08828   -1.49286
H     -0.46694    0.06162    2.13618
H     -1.36497    1.72706   -3.64259
H     -2.97477    2.59945   -3.59141
H     -4.17327    0.35918   -3.48073
H     -2.55629   -0.49982   -3.53251
H     -3.49761    1.54440   -1.39041
H      4.65384   -1.65371   -0.24185
H      3.88116   -3.23757   -0.12495
H      3.53685   -2.17915   -1.50099
H      3.09599    0.57241    4.09931
H      1.97538    0.62651    5.47008
H      1.55132    1.40891    3.93399
H      3.87833   -1.49716    3.43898
H      4.59356   -2.12865    1.95407
H      0.31981   -0.75760    4.20810
H      1.82550   -1.62436    4.40171
H      3.23550   -5.28046    2.42357
