42

C      6.35019    1.48020   -1.45168
C      5.35745    2.38181   -1.82668
C      6.05378    0.37087   -0.65543
C      1.60980   -0.29222   -0.41376
C      3.70953    1.07661   -0.58144
C     -0.27878    0.58402    0.75792
C      0.28742   -0.45814    0.01825
C      4.04060    2.17416   -1.39031
C      4.73357    0.17241   -0.22645
C      2.31355    0.87726   -0.10325
C      0.52041    1.69785    1.03687
C     -1.08713    2.49857    2.70854
C     -1.69170    0.65803    1.25735
C      5.20946   -4.23653    1.93034
C      3.91196   -3.98406    1.19192
C      4.63726   -2.83704    1.85604
C     -0.49472   -1.70345   -0.32100
C      5.33134   -1.81094    1.00581
N      1.77541    1.86657    0.63440
N     -0.05433    2.71964    1.80791
O     -1.36001    3.26335    3.60987
O     -1.77877    1.33882    2.53323
O      3.02427    3.01411   -1.76470
O      4.34263   -0.87642    0.55585
H      7.37187    1.63869   -1.78630
H      5.59561    3.23676   -2.45658
H      6.84315   -0.31541   -0.37551
H      2.09901   -1.06905   -0.99138
H     -2.33377    1.19428    0.54470
H     -2.12640   -0.32587    1.43603
H      5.16929   -4.75115    2.88541
H      6.09478   -4.45811    1.34012
H      3.92897   -4.02661    0.10623
H      2.98683   -4.33073    1.64212
H      4.19204   -2.44005    2.76462
H     -0.83287   -2.21741    0.58593
H     -1.38604   -1.46837   -0.91321
H      0.11515   -2.40399   -0.89593
H      5.81187   -2.29057    0.14208
H      6.10286   -1.28153    1.58040
H      0.54620    3.50572    2.03304
H      3.39448    3.72133   -2.31585
