23

C      2.02046   -1.20962   -0.26561
C      0.82622   -0.83620    0.34389
C      1.88707   -1.00659    2.52559
C      3.15528   -1.49000    0.50884
C      0.76782   -0.74579    1.73479
C      3.07894   -1.38007    1.91229
N     -1.54638   -1.76277    2.77848
N      4.01255   -1.45893    4.45433
O     -0.43727    0.27405    3.84133
O     -1.56931    0.45014    1.53468
O      4.86954   -3.14623    2.75473
O      5.54997   -0.68111    2.57250
O      4.33989   -1.86026   -0.03387
S     -0.76688   -0.27502    2.52356
S      4.56615   -1.72029    2.87460
H      2.08036   -1.27897   -1.34978
H     -0.04912   -0.60041   -0.25272
H      1.84192   -0.90618    3.60358
H     -1.64809   -1.92668    3.77934
H     -2.45465   -1.74762    2.31587
H      4.13447   -2.31270    4.99706
H      4.52096   -0.67899    4.86867
H      4.27206   -1.88612   -1.00203
