18   
Generated by ForceBalance from scan.xyz: Frame 1 of 24
C       -0.3187689433   -0.2265402080   -1.3345949299
C        0.4443505990   -0.3147124418    0.6908313182
C        0.1687690765    1.1911299122   -0.9554389215
C        1.5264742138    1.9384049002    1.0884190537
N       -0.1066675890   -1.0698139312   -0.2326591399
N        0.6521012610    0.9911869922    0.4088310957
N        0.8363685719   -0.8826595100    1.9187022170
O       -0.8187202279   -0.5269815134   -2.4008035200
O        0.0727904236    1.1184752489    3.5252657187
P        0.2362032923   -0.3384895497    3.4011984142
Cl       1.5637295287   -1.1937371620    4.6999024750
Cl      -1.4902639864   -1.3983128467    3.7351709991
H        0.9759519916    1.5191428051   -1.6186035114
H       -0.6486828305    1.9171521782   -1.0032834333
H        2.1316886622    1.4199259912    1.8313841279
H        0.9504173704    2.7144177131    1.5973034969
H        2.1932164265    2.3963505114    0.3507239632
H        0.8476584150   -1.8992287416    1.8238124782
18   
Generated by ForceBalance from scan.xyz: Frame 2 of 24
C       -0.5655660522   -0.2820829382   -1.3291775068
C        0.4435008359   -0.5127913041    0.5738970868
C        0.0169766279    1.0960723289   -0.9370654410
C        1.6363130759    1.6844227901    0.9669191307
N       -0.2481608033   -1.1944829047   -0.3118403442
N        0.6656787945    0.7994183910    0.3378387890
N        0.9701940643   -1.1673254034    1.7015353212
O       -1.2050659472   -0.5035929801   -2.3389066230
O        0.3315613157    0.7471635328    3.4573185664
P        0.6797448907   -0.6724141012    3.2883701624
Cl       2.3895956940   -1.2615699962    4.2473067957
Cl      -0.7192649509   -1.9895021202    4.0070703333
H        0.7423146786    1.4420260684   -1.6806865835
H       -0.7744304731    1.8450783026   -0.8350602029
H        2.3486226461    1.1017727665    1.5526840066
H        1.1494858731    2.4027903150    1.6302583650
H        2.1873494253    2.2159645181    0.1850525989
H        0.9351883655   -2.1764054575    1.5544661160
18   
Generated by ForceBalance from scan.xyz: Frame 3 of 24
C       -0.2957594648   -0.1796925863   -1.4656686967
C        0.3441556384   -0.3451146712    0.5981724255
C        0.2841895548    1.1911666424   -1.0440875098
C        1.5523646853    1.8215063301    1.1010161439
N       -0.2183251690   -1.0432524526   -0.3636610444
N        0.6859406432    0.9357160184    0.3369260857
N        0.6143473873   -0.9572836748    1.8321462751
O       -0.7542980188   -0.4302897363   -2.5633850304
O       -0.3335465603    1.0661511903    3.3081386911
P        0.1776387022   -0.3136491982    3.3288540127
Cl       1.8633425504   -0.5615147419    4.4695117582
Cl      -1.0993346575   -1.7189473559    4.1013238533
H        1.1436567979    1.4632380068   -1.6651268112
H       -0.4728295134    1.9784303774   -1.1159093702
H        2.1619222323    1.2417638060    1.7973187289
H        0.9754862259    2.5549981200    1.6692486449
H        2.2263601579    2.3355431316    0.4097825136
H        0.5214520953   -1.9689609190    1.7443188107
18   
Generated by ForceBalance from scan.xyz: Frame 4 of 24
C       -0.1918131632   -0.8930655535   -1.1027557286
C        0.0079447195   -0.3516799479    0.9853981080
C        0.2632084276    0.5844210891   -1.0435669954
C        0.4613545800    2.1402442848    0.9935032211
N       -0.3025265750   -1.3683467439    0.2116837913
N        0.3369028337    0.8189287554    0.3960856031
N       -0.0612286470   -0.4970334185    2.3796731014
O       -0.3901091627   -1.5166983778   -2.1273251586
O        2.2983236314    0.6715843993    2.8613703195
P        1.1642890387   -0.0588476998    3.4497121074
Cl       1.6281229506   -1.8217798035    4.3852228528
Cl       0.1826344611    0.9789058153    4.9224090049
H        1.2317854328    0.7193913872   -1.5352186520
H       -0.4732199931    1.2418139349   -1.5168456901
H        1.5073356862    2.4127771021    1.1528646312
H       -0.0577359148    2.1688128418    1.9540776148
H       -0.0146850057    2.8699023249    0.3323469002
H       -0.5746223345   -1.3453362546    2.6163776036
18   
Generated by ForceBalance from scan.xyz: Frame 5 of 24
C        0.0240482741   -1.1159410467   -0.9375951948
C       -0.2572550011   -0.3862929763    1.0826908026
C        0.4819639021    0.3611577091   -0.9044801236
C        0.2033209955    2.0995221567    0.9660325846
N       -0.4011606116   -1.4692228875    0.3516393071
N        0.2342015480    0.7238811418    0.4888346993
N       -0.6617921535   -0.3954552104    2.4290861203
O        0.0593730350   -1.8315979471   -1.9195690301
O        1.4780390187    0.9097746347    3.3651072940
P        0.3428013316    0.0406403650    3.7124501125
Cl       0.8548266043   -1.7347719972    4.6039556046
Cl      -0.9803212209    0.8423973796    5.0539740490
H        1.5381851918    0.4538254020   -1.1756167074
H       -0.1170007701    0.9733738307   -1.5865425714
H        1.1904660173    2.4294383935    1.2973025567
H       -0.4902580478    2.1891300159    1.8036356418
H       -0.1510646556    2.7448272928    0.1566372016
H       -1.2485843419   -1.2120658371    2.6015963036
18   
Generated by ForceBalance from scan.xyz: Frame 6 of 24
C       -0.3616610728   -0.6390849039   -1.1196819471
C        0.0990578121   -0.1932905195    0.9496626529
C        0.2221820333    0.7919101578   -1.0663925479
C        0.7161117386    2.2613172201    0.9793069156
N       -0.3771944551   -1.1516361680    0.1870933753
N        0.4782669446    0.9632361805    0.3617120961
N        0.1626705973   -0.3735286344    2.3451751002
O       -0.7145172966   -1.2082330875   -2.1338936369
O        2.5505182239    0.7702411534    2.7463146082
P        1.6100190487   -0.2628548474    3.2077235188
Cl       2.3945041705   -2.1600010181    3.2298054400
Cl       0.9177174386   -0.0399721838    5.1202150765
H        1.1365671279    0.8683485795   -1.6629458823
H       -0.5036011295    1.5261521937   -1.4309406094
H        1.7759585258    2.5241485350    0.9558590404
H        0.3906995390    2.2439688930    2.0194052775
H        0.1346960045    3.0185038680    0.4439293899
H       -0.4165418237   -1.1738373021    2.6026934727
18   
Generated by ForceBalance from scan.xyz: Frame 7 of 24
C       -0.3049042096   -0.6484408696   -1.0400177259
C        0.1189290699   -0.1425033073    1.0232089477
C        0.3356154836    0.7583919067   -1.0240290027
C        0.7744531536    2.2991577466    0.9745834129
N       -0.3766995265   -1.1085984618    0.2851828147
N        0.5753841959    0.9711975797    0.4025453831
N        0.1463074973   -0.2741547396    2.4253887289
O       -0.6520217575   -1.2437106852   -2.0407458270
O        2.4423414750    0.9767586690    3.0372050308
P        1.5933186300   -0.1961025926    3.2988629750
Cl       2.5555800612   -1.9814494222    2.9818172966
Cl       0.8781587115   -0.3793202332    5.2039038898
H        1.2612481137    0.7786521308   -1.6071068765
H       -0.3544442098    1.5074585187   -1.4260846854
H        1.8245710746    2.5952391204    0.9245702226
H        0.4700654155    2.3048640474    2.0197670494
H        0.1620271657    3.0196930928    0.4223733596
H       -0.4450555368   -1.0638467620    2.6891429020
18   
Generated by ForceBalance from scan.xyz: Frame 8 of 24
C       -0.3328210904   -0.6105867750   -0.9721204326
C        0.1029905603   -0.1063493632    1.0884638538
C        0.3946526605    0.7528421947   -0.9671387498
C        0.8506957164    2.3057753907    1.0118327482
N       -0.4422908622   -1.0496168432    0.3585141472
N        0.6395165482    0.9692273003    0.4591619086
N        0.1268911941   -0.2299273536    2.4905141613
O       -0.7092152817   -1.1962634794   -1.9674630571
O        2.3289219261    1.0766472097    3.3324568984
P        1.5898180130   -0.1958924141    3.3466135580
Cl       2.7062194808   -1.7666703317    2.6391075074
Cl       0.9402833875   -0.8294875140    5.1758432528
H        1.3236664723    0.7070210334   -1.5431672769
H       -0.2433552147    1.5389038883   -1.3839296254
H        1.8960350261    2.6069219568    0.9113659494
H        0.5962962126    2.3187963412    2.0693942527
H        0.2122159793    3.0198933862    0.4802569094
H       -0.4724164378   -1.0143000888    2.7518119265
18   
Generated by ForceBalance from scan.xyz: Frame 9 of 24
C       -0.6926436542   -0.5948971638   -0.7982722518
C        0.1568019397    0.4003971626    0.9278800130
C        0.0257336341    0.6762877192   -1.2987223333
C        0.7945244827    2.6768042618    0.0568637253
N       -0.5309916749   -0.6636339805    0.5983763068
N        0.5808982308    1.2335599538   -0.0625856050
N        0.4584394550    0.6512072853    2.2778654263
O       -1.2676851497   -1.3985940884   -1.5034946920
O        2.6607620017    2.1827974235    2.6028585918
P        2.0598727974    0.8540923395    2.8076745600
Cl       3.1508291913   -0.6366415084    1.9165517528
Cl       1.8654292699    0.2753940509    4.7568685114
H        0.8050383460    0.4339291088   -2.0266455301
H       -0.6873985523    1.3687317519   -1.7586748006
H        1.5417998517    2.9883362016   -0.6766267205
H        1.1690673695    2.9294436964    1.0459596586
H       -0.1410712538    3.2189519457   -0.1320666298
H       -0.0663304160   -0.0137022076    2.8472272757
18   
Generated by ForceBalance from scan.xyz: Frame 10 of 24
C       -0.5156284072   -0.6694094659   -0.8458676800
C        0.1952202693    0.2047154033    1.0044217195
C        0.1846667813    0.6645259666   -1.1980083665
C        1.0536889661    2.5041849305    0.3692361675
N       -0.4353084563   -0.8509664856    0.5438318955
N        0.6030641536    1.1418733339    0.1168262264
N        0.4176150158    0.3447214979    2.3828314731
O       -1.0188186836   -1.4236372524   -1.6546911497
O        2.3190267395    2.0207119478    3.3388371009
P        1.9544609136    0.6220407424    3.0591144562
Cl       3.2878416046   -0.2839530550    1.7891319533
Cl       1.8690733997   -0.5835877359    4.7068063616
H        1.0337709766    0.5003216079   -1.8688322379
H       -0.5142673216    1.3622271452   -1.6709463982
H        2.1078191335    2.6274315661    0.1008305762
H        0.9348098981    2.7542057909    1.4228872498
H        0.4521192401    3.1989986972   -0.2255264107
H       -0.0998666115   -0.3924429444    2.8619562031
18   
Generated by ForceBalance from scan.xyz: Frame 11 of 24
C       -0.5255419456   -0.6864014929   -0.8299486283
C        0.1840383571    0.2251604690    1.0023543520
C        0.1931257127    0.6306184264   -1.2119766919
C        1.0983526426    2.4841108920    0.3239092840
N       -0.4564739276   -0.8342354435    0.5647013717
N        0.6045902947    1.1354094474    0.0936359175
N        0.3829184304    0.4222710061    2.3759538814
O       -1.0339663541   -1.4538218260   -1.6228215707
O        2.1571509661    2.0051636216    3.6639162471
P        1.8933380914    0.6611591044    3.1242147050
Cl       3.2884891108    0.0933242481    1.7331777087
Cl       1.8963750435   -0.8218333338    4.5345972377
H        1.0456713207    0.4386919135   -1.8711945158
H       -0.4939694519    1.3232476605   -1.7091837175
H        2.1487958857    2.5759613980    0.0291073174
H        1.0083135147    2.7439656127    1.3794758706
H        0.5027125460    3.1954713726   -0.2574148020
H       -0.1937378434   -0.2531900962    2.8785710538
18   
Generated by ForceBalance from scan.xyz: Frame 12 of 24
C       -0.5471079933   -0.5945854839   -0.8381107496
C        0.0932504703    0.3601737151    0.9976379508
C        0.2152367386    0.6958867525   -1.2255503572
C        1.0246171670    2.5982678702    0.2982383680
N       -0.5482456392   -0.6989788236    0.5633346821
N        0.5844776264    1.2290995685    0.0815451173
N        0.2213709213    0.6187799749    2.3704234261
O       -1.0302114781   -1.3787127233   -1.6300111123
O        1.8618682104    1.9698395010    4.0256206648
P        1.6793342611    0.7367652259    3.2430569000
Cl       3.1600266738    0.4230078375    1.8654750543
Cl       1.6665100587   -0.9649031780    4.3863093008
H        1.0885943224    0.4680588398   -1.8445763253
H       -0.4363064259    1.3884749489   -1.7687990150
H        2.0643126982    2.7295564299   -0.0168179912
H        0.9443316180    2.8541910810    1.3555750411
H        0.3898336626    3.2868810901   -0.2703516767
H       -0.4591156374    0.0435953687    2.8693444665
18   
Generated by ForceBalance from scan.xyz: Frame 13 of 24
C       -0.2315483656   -0.6526043020   -1.2636872863
C       -0.2535608429   -0.2014961127    0.8543533984
C        0.2118722577    0.8202995778   -1.1041108715
C        0.7725811318    2.0893506815    1.0411209912
N       -0.4886318604   -1.1753181616    0.0111970943
N        0.0709375210    1.0252518302    0.3376603135
N       -0.3828155108   -0.3560934640    2.2256079487
O       -0.3391993454   -1.2304510548   -2.3270023524
O        0.5045390639   -1.3156128059    4.4739325346
P       -0.0762585121   -1.7282416832    3.1824285936
Cl       1.0048613492   -3.0390054920    2.0772757779
Cl      -1.8866116961   -2.6549609518    3.3359578329
H        1.2517300028    0.9416719532   -1.4284941870
H       -0.4260105201    1.4950889164   -1.6813691636
H        1.8157305695    1.8284334899    1.2654454927
H        0.2607291486    2.3517715032    1.9718966502
H        0.7626224916    2.9836168741    0.4155347311
H       -0.1881054634    0.4720109983    2.7835176670
18   
Generated by ForceBalance from scan.xyz: Frame 14 of 24
C       -0.2652111508   -0.6508752426   -1.2321633393
C       -0.1988423642   -0.1883885360    0.8825220192
C        0.1718579567    0.8272877993   -1.0991008460
C        0.7891993269    2.1220290176    1.0190431235
N       -0.4621286178   -1.1690516899    0.0545162114
N        0.0909412847    1.0371806069    0.3463860665
N       -0.2569634087   -0.3469756438    2.2553246081
O       -0.4092216812   -1.2357481483   -2.2872962230
O        0.3098874959   -1.4594466864    4.5271685293
P       -0.1223918190   -1.7811734857    3.1543349995
Cl       1.0790458261   -3.0538714181    2.1208817672
Cl      -1.9538304045   -2.6555528362    3.0117861194
H        1.1942260686    0.9588739364   -1.4712370199
H       -0.4998737495    1.4919257080   -1.6492137709
H        1.8485705903    1.8935071740    1.1987411655
H        0.3074734486    2.3680520411    1.9702565348
H        0.7259859116    3.0155585006    0.3953593711
H        0.0071209973    0.4487734603    2.8300555085
18   
Generated by ForceBalance from scan.xyz: Frame 15 of 24
C       -0.2928183625   -0.6538170169   -1.2100377345
C       -0.1399147110   -0.2075635874    0.9040230364
C        0.0984861845    0.8375870548   -1.0827923940
C        0.7775727473    2.1305987692    1.0155775486
N       -0.4011573942   -1.1916189829    0.0791172109
N        0.0764903604    1.0331830504    0.3668846796
N       -0.1176061645   -0.3849706847    2.2727126340
O       -0.4710913574   -1.2333373026   -2.2628034349
O        0.1243720946   -1.5619678667    4.5644453024
P       -0.1486675844   -1.8395184939    3.1419722923
Cl       1.1665153552   -3.1007174153    2.2384125186
Cl      -1.9617725575   -2.6694151622    2.7520389910
H        1.0970435169    1.0083057782   -1.5009917588
H       -0.6213123832    1.4820664737   -1.5946475258
H        1.8528558551    1.9352846398    1.1274810530
H        0.3461373163    2.3433999442    1.9983515313
H        0.6471691621    3.0316485665    0.4133956760
H        0.1238056477    0.4018110707    2.8678100014
18   
Generated by ForceBalance from scan.xyz: Frame 16 of 24
C       -0.3104297594   -0.6279521205   -1.2311243531
C       -0.0619818564   -0.2160153485    0.8814100279
C        0.0278968673    0.8754362228   -1.0923068853
C        0.7611727636    2.1568723650    0.9945219767
N       -0.3231941860   -1.1949082095    0.0498993326
N        0.0733431543    1.0427522798    0.3603942284
N        0.0674107838   -0.4244914170    2.2390699417
O       -0.5235145786   -1.1934800349   -2.2850403626
O       -0.0224805132   -1.5907492799    4.5457870717
P       -0.1766513796   -1.8612931326    3.1040495582
Cl       1.1479842011   -3.1967464299    2.3336314268
Cl      -1.9971046633   -2.5801718478    2.5588576830
H        0.9964813340    1.0932013744   -1.5568722838
H       -0.7413601650    1.5006242242   -1.5533834093
H        1.8486666307    2.0085664572    1.0393932865
H        0.3807336544    2.3264128016    2.0062977220
H        0.5544868850    3.0643169540    0.4240914491
H        0.2055663253    0.3723343613    2.8531234822
18   
Generated by ForceBalance from scan.xyz: Frame 17 of 24
C       -0.1940000083   -0.9686927257   -0.8202603817
C       -0.1251039623   -0.2558532271    1.2248446467
C        0.1361781023    0.5419032994   -0.8705780181
C        0.6897643545    2.1182845717    1.0613267576
N       -0.3107538591   -1.3472138328    0.5234732445
N        0.0547390584    0.9170336520    0.5412681917
N       -0.1021574876   -0.2689285505    2.6063974842
O       -0.3218008629   -1.6809198765   -1.7961563652
O       -0.8790973868   -0.9033200353    4.9917049553
P       -0.7215400204   -1.4687086016    3.6381036545
Cl       0.6078644610   -3.0018111489    3.5160097039
Cl      -2.4296171389   -2.1868774523    2.8086550826
H        1.1425719957    0.6992521012   -1.2755654737
H       -0.5873455117    1.0878709110   -1.4816795024
H        1.7726182336    1.9947642193    1.1980894470
H        0.2411671630    2.4172026994    2.0133208109
H        0.5154429941    2.9365433996    0.3600625879
H       -0.0542457226    0.6238167292    3.0897629010
18   
Generated by ForceBalance from scan.xyz: Frame 18 of 24
C       -0.0096915540   -1.2830292719    0.1595742134
C        0.4636196428    0.2351780436    1.6300493930
C       -0.0791279056    0.0868061633   -0.5570884885
C        0.5596620509    2.3982000591    0.3404855631
N        0.3556174640   -1.0639673085    1.4935986217
N        0.1621474318    1.0147716014    0.5467385907
N        0.8872866072    0.8224635466    2.8097365616
O       -0.2338740668   -2.3519994303   -0.3729574037
O        0.5803388643    1.3798233124    5.3203943058
P        0.7127099719    0.2344318723    4.3991466533
Cl       2.3898322996   -0.8752964936    4.7170836563
Cl      -0.8186810264   -1.0895053905    4.4436759877
H        0.6984622887    0.1563967330   -1.3265206255
H       -1.0575865928    0.2456719463   -1.0183186219
H        1.6369533007    2.5027049123    0.1535256938
H        0.2827279943    3.0178987170    1.1990372242
H        0.0156863674    2.7921284563   -0.5199396069
H        0.8581857299    1.8389949314    2.8404031731
18   
Generated by ForceBalance from scan.xyz: Frame 19 of 24
C       -0.0038876359   -0.4947067754   -1.5473489552
C        0.8909391457   -0.3850133946    0.4222035255
C        0.1168931196    1.0026184325   -1.1734689791
C        1.3581438356    2.0637966395    0.8080475586
N        0.4989047365   -1.2555120784   -0.4778180755
N        0.7223575248    0.9321515086    0.1522723487
N        1.5202828799   -0.7968919465    1.6068298524
O       -0.4788393660   -0.9145591780   -2.5833857514
O        1.9120665491    0.0160345552    4.1434085540
P        0.9485456343   -0.5612684629    3.1930042330
Cl       0.2718079189   -2.4242428966    3.7254452656
Cl      -0.7741068337    0.5245435579    2.9842818485
H        0.7649495263    1.5323570798   -1.8796799854
H       -0.8646681270    1.4864985586   -1.1583162126
H        1.9959335205    1.7140046417    1.6208955040
H        0.6103565195    2.7493870681    1.2180891202
H        1.9837443834    2.6058999096    0.0902096657
H        1.8518559646   -1.7544373205    1.4790225788
18   
Generated by ForceBalance from scan.xyz: Frame 20 of 24
C       -0.0153393542   -0.5465249090   -1.5590908425
C        0.7279512009   -0.3848911758    0.4682568473
C        0.1591145755    0.9595770539   -1.2452662645
C        1.2467514262    2.0669201915    0.8053440568
N        0.3578388432   -1.2779967510   -0.4198992189
N        0.6645982363    0.9222002505    0.1228116045
N        1.2191290430   -0.7817240456    1.7198524656
O       -0.4276256477   -0.9917682190   -2.6115430161
O        1.4517266343    0.5330005367    4.0725811971
P        0.5865146721   -0.3040017829    3.2262154821
Cl       0.0585436241   -2.1044560813    4.0506813974
Cl      -1.2191139985    0.5724618000    2.8033594655
H        0.8821539449    1.4217139109   -1.9254887957
H       -0.7942403305    1.4919562574   -1.3221499410
H        1.8507600760    1.7344223859    1.6508204316
H        0.4694997094    2.7438857758    1.1744333142
H        1.8961832486    2.6143534064    0.1143490536
H        1.4034937277   -1.7848969550    1.6837984671
18   
Generated by ForceBalance from scan.xyz: Frame 21 of 24
C       -0.0475751819   -0.4953127941   -1.5939020318
C        0.7030502109   -0.3996411327    0.4366118298
C        0.1638827037    0.9971284116   -1.2436435379
C        1.2939231424    2.0343056635    0.8174976544
N        0.3086713148   -1.2611412570   -0.4726546786
N        0.6684855229    0.9166629688    0.1240637908
N        1.1605949229   -0.8506705963    1.6834529992
O       -0.4744057993   -0.9051140142   -2.6551146354
O        1.3056655007    0.7304868901    3.8802998286
P        0.5384957752   -0.3064532271    3.1714158752
Cl       0.3355880352   -2.0770821679    4.1755050705
Cl      -1.3946296848    0.2667045042    2.7798299171
H        0.8978352480    1.4579853535   -1.9127852562
H       -0.7760135802    1.5545250187   -1.3061119144
H        1.9199419782    1.6727436209    1.6330182082
H        0.5411639703    2.7131032216    1.2312576740
H        1.9243756242    2.5891495155    0.1151621711
H        1.2450683523   -1.8664477452    1.6401831325
18   
Generated by ForceBalance from scan.xyz: Frame 22 of 24
C        0.1585187857   -0.5221739827   -1.6439037443
C        0.7332968834   -0.3935578198    0.4409799055
C        0.3012062307    0.9742278324   -1.2897861372
C        1.4171054354    2.0180411333    0.7412056824
N        0.4383413020   -1.2705902521   -0.4861392833
N        0.6572016542    0.9285314352    0.1297447228
N        1.1032997385   -0.8285919190    1.7250499415
O       -0.1658560047   -0.9562808050   -2.7305694652
O        0.7052370084    0.9767413650    3.6986961726
P        0.2846205641   -0.3105250536    3.1211986872
Cl       0.5468392031   -1.9497997744    4.3151533197
Cl      -1.7143981271   -0.3529402676    2.6603199114
H        1.0965181500    1.4394563214   -1.8819561080
H       -0.6332142248    1.5155241023   -1.4632303073
H        1.7077274647    1.7603840476    1.7570733523
H        0.7966252413    2.9166988123    0.7840301196
H        2.3159606933    2.2311305245    0.1489802592
H        1.2216000138   -1.8416070708    1.6901688215
18   
Generated by ForceBalance from scan.xyz: Frame 23 of 24
C        0.1974251805   -0.2256976365   -1.3898912170
C        0.6250338257   -0.0502821340    0.7263253469
C        0.4929879608    1.2610296483   -1.0938550614
C        1.5554263923    2.2845105612    0.9792595860
N        0.2993184341   -0.9377181967   -0.1813308548
N        0.7380106757    1.2501559129    0.3489106747
N        0.8331122653   -0.4540908584    2.0587833913
O       -0.0974568294   -0.6762912594   -2.4783480804
O        0.1802431156    1.6203943681    3.6540414867
P       -0.0778041746    0.2088405339    3.3268260583
Cl       0.3443628429   -1.1405255042    4.8016948252
Cl      -2.0451671855   -0.1539759017    2.8734401219
H        1.3789115510    1.5975611055   -1.6428879678
H       -0.3544444956    1.8975951775   -1.3642114108
H        1.8149683853    1.9960493415    1.9943800050
H        0.9977079504    3.2229158307    1.0285149737
H        2.4726443355    2.4385133768    0.3977003867
H        0.8617574683   -1.4744776151    2.0803053903
18   
Generated by ForceBalance from scan.xyz: Frame 24 of 24
C       -0.1794090532   -0.2334787292   -1.2845215669
C        0.4518941070   -0.2123190207    0.7872696354
C        0.2111860262    1.2189762325   -0.9285406323
C        1.4566468638    2.0800755899    1.1353687166
N        0.0010993335   -1.0260144007   -0.1384496157
N        0.6003956409    1.0982556392    0.4759153508
N        0.7810806458   -0.7125550183    2.0621328965
O       -0.5945630256   -0.5975542303   -2.3666746410
O        0.1033074421    1.3302754750    3.6688559133
P        0.0393493213   -0.1255292512    3.4651858621
Cl       0.9773318207   -1.2700481526    4.8745428074
Cl      -1.8789995643   -0.8558346759    3.4548602694
H        1.0494856761    1.5612044178   -1.5442595829
H       -0.6330407288    1.9009251243   -1.0674770591
H        1.9928604098    1.6142400449    1.9600480543
H        0.8670277643    2.9068285182    1.5375515341
H        2.1825127475    2.4643857241    0.4108441697
H        0.8083488931   -1.7322554749    2.0131959675
