27   

C       -4.3425734716    0.0352111127    1.5757923697
C       -3.0710161919   -1.4971825999    0.2018905560
C       -3.1715474856    0.4170776209    2.2345112122
C       -1.8968513052   -1.0941184769    0.8500387473
C       -4.3105141943   -0.9378493902    0.5599144418
C       -1.9357865416   -0.1449953087    1.8867283050
C       -0.6783271317    1.5353111106    3.9086059459
C        0.8216454925    0.7334739337    1.6774342558
C       -5.5347088794   -1.3838027287   -0.1859329166
C       -6.8028352728   -0.5595854737   -0.0601155550
C       -0.1354837131   -1.1954794160    3.5134950579
O       -5.4890693342   -2.2989888632   -0.9988956284
S       -0.4091752300    0.4051274169    2.7295283654
H       -5.2734351186    0.5015681306    1.8775244065
H       -3.0115352287   -2.2373433790   -0.5904564221
H       -3.2230573979    1.1702171112    3.0154671491
H       -0.9488910543   -1.5217646582    0.5387761006
H       -0.0737107914    2.4317424131    3.9395521331
H       -1.4382182906    1.3779040323    4.6616404400
H        1.4482189404    1.5996349725    1.8440902002
H        0.9914398329    0.1093735487    0.8114483919
H       -6.5782493712    0.5023345585   -0.1905965543
H       -7.2579797008   -0.7237812678    0.9199768814
H       -7.5159377797   -0.8595081287   -0.8335625976
H        0.7421441127   -1.1180727104    4.1582930956
H       -1.0084208344   -1.4570637338    4.1143390957
H        0.0401856730   -1.9543874652    2.7501336705
27   

C       -4.3718434561   -0.0173505028    1.6542700229
C       -3.1022815143   -1.5161853936    0.2418563896
C       -3.1935071985    0.3873221601    2.2859456753
C       -1.9210606190   -1.0894816996    0.8614336592
C       -4.3439849782   -0.9957302678    0.6453361776
C       -1.9550467413   -0.1486677573    1.9062880594
C       -0.6854303367    1.5330414958    3.9193231131
C        0.7744639159    0.7983487511    1.6392020956
C       -5.5745229927   -1.4432099856   -0.0897748728
C       -6.7410593191   -0.4778210177   -0.1889649791
C       -0.0877629987   -1.1779929159    3.4716917582
O       -5.5486704804   -2.4203562974   -0.8280599373
S       -0.4204524740    0.4259666319    2.7176581994
H       -5.3083041353    0.4272601138    1.9721624912
H       -3.0479512417   -2.2467127124   -0.5597506610
H       -3.2414288778    1.1372764313    3.0702056090
H       -0.9718572615   -1.4920279330    0.5217953229
H       -0.1009771732    2.4427848664    3.9484177164
H       -1.4219760827    1.3469495291    4.6888640600
H        1.3850320147    1.6764597184    1.8026499604
H        0.9359866013    0.1906961729    0.7600366544
H       -6.3772928284    0.5445023959   -0.3223993735
H       -7.3487038019   -0.5358376195    0.7175923016
H       -7.3647763135   -0.7379794935   -1.0491604993
H        0.8035893997   -1.0875397533    4.0956402857
H       -0.9385820665   -1.4696565732    4.0901759354
H        0.0875333963   -1.9218889740    2.6936160829
27   

C       -4.3769152280   -0.0377758083    1.7083092493
C       -3.0968796649   -1.5019768800    0.2700915651
C       -3.1990715916    0.3856005003    2.3287813267
C       -1.9160739573   -1.0560640242    0.8767471457
C       -4.3422949139   -1.0194268138    0.7050634066
C       -1.9554578259   -0.1267274985    1.9320423040
C       -0.6938696593    1.5469265911    3.9569635788
C        0.7525700123    0.8758830864    1.6488593491
C       -5.5737723868   -1.4689099375   -0.0301289147
C       -6.6083132631   -0.4171163194   -0.3813399113
C       -0.0501317039   -1.1445136661    3.4598051212
O       -5.5684874620   -2.5138783212   -0.6691814969
S       -0.4225496414    0.4642484502    2.7347359924
H       -5.3211227296    0.3875315049    2.0304379758
H       -3.0416580259   -2.2219700887   -0.5409242726
H       -3.2513613266    1.1306250382    3.1174642028
H       -0.9634939793   -1.4352166911    0.5200789351
H       -0.1252949290    2.4663205505    3.9949792927
H       -1.4183218458    1.3348026758    4.7312723023
H        1.3494018668    1.7619289240    1.8199634894
H        0.9145796418    0.2854782631    0.7581149978
H       -6.1213637107    0.5426211642   -0.5740343655
H       -7.3177487108   -0.3059991769    0.4423386954
H       -7.1544391617   -0.7169300672   -1.2804605203
H        0.8464277629   -1.0464237693    4.0750900177
H       -0.8879013968   -1.4624159770    4.0831857352
H        0.1306505968   -1.8728963579    2.6684240207
27   

C       -4.4038980455   -0.0607929675    1.8007242290
C       -3.1494055623   -1.4691470829    0.2894700850
C       -3.2137023597    0.3730605488    2.3893622703
C       -1.9559266974   -1.0132446251    0.8632838873
C       -4.3862697554   -1.0286118448    0.7852454381
C       -1.9755855493   -0.1095915488    1.9413714863
C       -0.6757359498    1.5355192715    3.9658290117
C        0.7097267182    0.9367462960    1.6007709528
C       -5.6419919912   -1.4758773783    0.0858991540
C       -6.5306625868   -0.3907090430   -0.4878215952
C       -0.0124229170   -1.1343551579    3.3876981353
O       -5.6883563601   -2.5832127951   -0.4350374211
S       -0.4273509523    0.4851502407    2.7109778290
H       -5.3462731426    0.3399839020    2.1581586178
H       -3.1141793318   -2.1700896193   -0.5390849213
H       -3.2525763840    1.1013771259    3.1942571787
H       -1.0095625480   -1.3658374429    0.4652171807
H       -0.1171486471    2.4607321199    4.0096233245
H       -1.3746947555    1.2960139939    4.7554739711
H        1.3009404912    1.8258719671    1.7753181055
H        0.8525924830    0.3689082577    0.6922811764
H       -5.9291900898    0.4750459666   -0.7776240381
H       -7.2681802326   -0.0842000449    0.2577234368
H       -7.0553701578   -0.7636869958   -1.3721280814
H        0.9009148522   -1.0381132110    3.9780930951
H       -0.8268275212   -1.4775855617    4.0284231294
H        0.1535797510   -1.8424017172    2.5749055481
27   

C       -4.4104710807   -0.0520423425    1.9186024044
C       -3.2100508022   -1.4342683336    0.3439659231
C       -3.2013216486    0.3736340855    2.4731974311
C       -1.9969480147   -0.9871958143    0.8829427170
C       -4.4280687429   -1.0032668278    0.8886396229
C       -1.9793463428   -0.1013693770    1.9758528310
C       -0.6129890552    1.5017805511    3.9897506626
C        0.6911275595    0.9569910624    1.5662238513
C       -5.7204695383   -1.4390049440    0.2419886151
C       -6.4470653211   -0.3930635208   -0.5772041361
C        0.0337200775   -1.1538240042    3.3320712326
O       -5.8546674007   -2.6069636139   -0.0992915466
S       -0.4062794073    0.4790222782    2.7049069756
H       -5.3414517168    0.3399423824    2.3138876891
H       -3.2075660270   -2.1248590129   -0.4937553621
H       -3.2131888089    1.0882209326    3.2911551024
H       -1.0649010104   -1.3340326478    0.4478123115
H       -0.0548759771    2.4272146968    4.0344274980
H       -1.2839429442    1.2434596295    4.7975956916
H        1.2865329561    1.8435518974    1.7395755612
H        0.8034499620    0.4090633056    0.6413904044
H       -5.7378090609    0.3447673816   -0.9617426672
H       -7.1881349402    0.1132220153    0.0458164032
H       -6.9569606318   -0.8633054862   -1.4229801237
H        0.9656296167   -1.0680574840    3.8943934093
H       -0.7586270350   -1.5131679037    3.9913921383
H        0.1745424828   -1.8436168052    2.4991084359
27   

C       -4.4188507676   -0.2217250913    2.1291223029
C       -3.2555117368   -1.3273542539    0.3272788027
C       -3.1992456782    0.1440840911    2.7019369406
C       -2.0307969385   -0.9485874246    0.8934657700
C       -4.4606999716   -0.9138963362    0.9108675281
C       -1.9886287233   -0.2027573713    2.0854957485
C       -0.5784756388    1.3166222551    4.1340802385
C        0.6533216818    0.9060005562    1.6462962052
C       -5.7796197262   -1.3516149503    0.3156984732
C       -6.3687779973   -0.4433651550   -0.7417305889
C        0.0668218814   -1.3012855798    3.3212854444
O       -6.5575166384   -2.0054328384    0.9973322499
S       -0.4003792563    0.3584487000    2.7965202326
H       -5.3464608386    0.0472493962    2.6243184913
H       -3.2641266502   -1.9173459926   -0.5829698840
H       -3.1977861322    0.7165652480    3.6247596457
H       -1.1070215423   -1.2305638872    0.3979345894
H       -0.0385687875    2.2517990232    4.1985241773
H       -1.2147386831    1.0110166825    4.9532085169
H        1.2333163568    1.7989515877    1.8387440047
H        0.7532578100    0.3991699459    0.6970800414
H       -6.0639247197   -0.7874921767   -1.7328994073
H       -6.0188699381    0.5821528070   -0.5962089847
H       -7.4609209709   -0.4540782733   -0.6822035592
H        1.0206394379   -1.2404930178    3.8489688169
H       -0.6983221508   -1.6952209280    3.9928250354
H        0.1728567185   -1.9463351012    2.4482748545
27   

C       -4.4283033103   -0.2012742319    2.1716338911
C       -3.2957234790   -1.2187368276    0.3057521522
C       -3.2013487716    0.1490339863    2.7373355907
C       -2.0621170617   -0.8568666976    0.8643421228
C       -4.4952186106   -0.8308238447    0.9190062281
C       -2.0009910094   -0.1614195183    2.0848664953
C       -0.5612795356    1.2896309254    4.1634454845
C        0.6375324893    0.9588320337    1.6472366896
C       -5.8240149354   -1.2863909270    0.3672960829
C       -6.3018510717   -0.6052973810   -0.8974944316
C        0.0677970006   -1.2998420832    3.2567771456
O       -6.6817934749   -1.7044215759    1.1342908074
S       -0.4032328807    0.3766623721    2.7921967825
H       -5.3463558947    0.0345236698    2.7010073982
H       -3.3150203311   -1.7765393939   -0.6243156352
H       -3.1874030967    0.6787624297    3.6852200772
H       -1.1461044553   -1.1151397249    0.3421785633
H       -0.0170828731    2.2202513216    4.2527130580
H       -1.1891741055    0.9593611217    4.9794563895
H        1.2232320299    1.8429035944    1.8620991073
H        0.7233594108    0.4839231279    0.6803315498
H       -5.9765903944   -1.1772764221   -1.7696202280
H       -5.8909561523    0.4059727318   -0.9582627745
H       -7.3937870881   -0.5412452978   -0.9024131024
H        1.0289619759   -1.2576024850    3.7728091345
H       -0.6886947073   -1.7137564331    3.9261224038
H        0.1600385360   -1.9166221272    2.3620509324
27   

C       -4.4369205675   -0.1504284930    2.1918556765
C       -3.3335113577   -1.1196901758    0.2851788194
C       -3.2018296642    0.1816283259    2.7501563129
C       -2.0913968988   -0.7751741092    0.8363075894
C       -4.5260980413   -0.7493738575    0.9242020106
C       -2.0114668461   -0.1147521661    2.0746472216
C       -0.5397615482    1.2647541602    4.1801698671
C        0.6241018057    1.0140786423    1.6383583106
C       -5.8642697420   -1.1891262629    0.3924812833
C       -6.2258831995   -0.7560313169   -1.0135567274
C        0.0710901371   -1.2937720940    3.1813608737
O       -6.7821962416   -1.4247122056    1.1680185892
S       -0.4031756514    0.3975234219    2.7773085936
H       -5.3449580109    0.0768531615    2.7421230488
H       -3.3632975650   -1.6526250459   -0.6589980784
H       -3.1742687910    0.6861577085    3.7114271403
H       -1.1831558903   -1.0206685803    0.2947609722
H        0.0095022101    2.1897279327    4.2936687465
H       -1.1588038612    0.9098446151    4.9926146547
H        1.2163501739    1.8882232565    1.8748017490
H        0.6938675610    0.5721735885    0.6546684988
H       -5.8851390615   -1.5062555165   -1.7309446268
H       -5.7548400059    0.2032680352   -1.2438393691
H       -7.3101504508   -0.6448257774   -1.1053516397
H        1.0391805638   -1.2692884234    3.6854848696
H       -0.6769118831   -1.7279079444    3.8474323550
H        0.1503650146   -1.8816902074    2.2662245696
27   

C       -4.4235231121   -0.1304806327    2.2605066057
C       -3.3602632500   -1.0355993572    0.3005023671
C       -3.1775967524    0.1910591304    2.7999998151
C       -2.1075603825   -0.7008550811    0.8337170366
C       -4.5415354679   -0.7020477168    0.9814922049
C       -2.0018618071   -0.0810869036    2.0906231571
C       -0.4872729280    1.2370298492    4.2058711424
C        0.6266684012    1.0589577284    1.6353266591
C       -5.8945311045   -1.1144417613    0.4730791262
C       -6.1818128733   -0.9302841964   -1.0044203437
C        0.1000842391   -1.2910071844    3.1218098605
O       -6.8434243885   -1.2093979655    1.2414959863
S       -0.3798840687    0.4115293476    2.7755743157
H       -5.3177018853    0.0830776160    2.8384180827
H       -3.4040216029   -1.5362553781   -0.6604961459
H       -3.1306239836    0.6688946515    3.7740862483
H       -1.2107809703   -0.9226476437    0.2635684434
H        0.0669967225    2.1567428332    4.3364106029
H       -1.0920879143    0.8598920167    5.0190236045
H        1.2260775415    1.9242276436    1.8859388812
H        0.6759221613    0.6462284001    0.6378354954
H       -5.8677481771   -1.8193504967   -1.5565899202
H       -5.6460258638   -0.0571503382   -1.3863377749
H       -7.2537285644   -0.7773637316   -1.1598675674
H        1.0774566766   -1.2816649720    3.6082222288
H       -0.6357328001   -1.7437195771    3.7891043657
H        0.1614003036   -1.8523567003    2.1887830934
27   

C       -4.2363110351    0.6820279503    1.5747032958
C       -3.6042148101   -1.5195377934    0.8303487125
C       -2.9659570331    0.8728283193    2.1193656173
C       -2.3223234559   -1.3227855992    1.3629519299
C       -4.5683908196   -0.5000482721    0.8896741957
C       -1.9888091200   -0.1242877364    2.0165933544
C       -0.0980484064    1.6744760453    3.3198964354
C        0.8800125639   -0.3595674360    1.6510817988
C       -5.9662549242   -0.6944620598    0.3764169724
C       -6.1806562670   -1.6567428589   -0.7774529522
C       -0.5217491272   -1.0153959435    4.0191027620
O       -6.8597682931    0.0896688157    0.6706895350
S       -0.3074892345    0.1653774127    2.6739628588
H       -4.9745101348    1.4721163326    1.6747989018
H       -3.8268631697   -2.4684700827    0.3554895444
H       -2.7380557501    1.8128818312    2.6131751906
H       -1.5798378762   -2.1085635733    1.2641547213
H        0.7691433049    2.2595628460    3.0446773212
H       -0.8094507741    2.0771260514    4.0277659553
H        1.7667996938    0.2446567400    1.5121392707
H        0.7714769332   -1.2831623091    1.1006301193
H       -6.2698418372   -2.6776467549   -0.3977232775
H       -5.3453914865   -1.5978037665   -1.4804068644
H       -7.1001196948   -1.3966580934   -1.3099924742
H        0.3795978293   -1.0034437072    4.6350614196
H       -1.3812805091   -0.7201823081    4.6238206850
H       -0.6712820433   -2.0153295942    3.6102909744
27   

C       -4.2221463932    0.7273434108    1.5416261380
C       -3.5870721371   -1.4616152696    0.7584611866
C       -2.9553028677    0.9059388186    2.0983126371
C       -2.3084634176   -1.2748145828    1.3025767710
C       -4.5563186571   -0.4484044176    0.8468584952
C       -1.9798708825   -0.0917405271    1.9860107085
C       -0.1038107001    1.6676174089    3.3634707819
C        0.8934292351   -0.3111593008    1.6404007180
C       -5.9440993839   -0.6186593543    0.2998003450
C       -6.2119255793   -1.7638552265   -0.6597871918
C       -0.5282093083   -1.0426725855    3.9729454566
O       -6.8139735124    0.2201309599    0.4985654018
S       -0.3050286424    0.1800456607    2.6670964841
H       -4.9572653940    1.5198762757    1.6451660901
H       -3.7955387277   -2.4000638382    0.2578737816
H       -2.7283417058    1.8372947018    2.6088258351
H       -1.5639468073   -2.0566772838    1.1889585847
H        0.7666055228    2.2610832494    3.1180464282
H       -0.8240860315    2.0472597876    4.0750946152
H        1.7819404720    0.2966736794    1.5315179685
H        0.7902357326   -1.2155175378    1.0578960978
H       -6.2404111438   -2.7098100119   -0.1129434192
H       -5.4359646373   -1.8027565793   -1.4288889140
H       -7.1775164056   -1.6137101519   -1.1515206099
H        0.3671893456   -1.0471215210    4.5976258533
H       -1.3943957033   -0.7690321876    4.5783128057
H       -0.6703081986   -2.0299952646    3.5321092579
27   

C       -4.2215004990    0.7704081296    1.4962948275
C       -3.5737315108   -1.4015995069    0.6760367570
C       -2.9605119120    0.9405094591    2.0687986800
C       -2.3007683163   -1.2221617283    1.2356951618
C       -4.5521734655   -0.3994649591    0.7899398255
C       -1.9829256974   -0.0541705117    1.9493064538
C       -0.1269766301    1.6763951143    3.3898745261
C        0.8953234415   -0.2584371634    1.6318661535
C       -5.9256826855   -0.5466895307    0.2006526628
C       -6.2678760456   -1.8241180250   -0.5443273111
C       -0.5506445642   -1.0480980517    3.9294542021
O       -6.7686580429    0.3339548845    0.3172011138
S       -0.3165300858    0.2057586298    2.6553550351
H       -4.9562647920    1.5631293456    1.6009471542
H       -3.7668251973   -2.3249868867    0.1427005204
H       -2.7391646791    1.8636535442    2.5964359350
H       -1.5511663020   -1.9970408061    1.1083826614
H        0.7456247092    2.2767686873    3.1704039701
H       -0.8572437602    2.0377508376    4.1008367423
H        1.7842265752    0.3529340181    1.5491687851
H        0.8007294927   -1.1482169384    1.0259184694
H       -6.1718408572   -2.6852475002    0.1220732948
H       -5.6064562068   -1.9444358696   -1.4063400602
H       -7.3002949817   -1.7753968486   -0.9027545568
H        0.3378477001   -1.0650407172    4.5637219642
H       -1.4241664660   -0.7910745312    4.5315469103
H       -0.6850550485   -2.0251031648    3.4639073977
27   

C       -4.1793286978    0.7917039617    1.4297087090
C       -3.5194672300   -1.3742824164    0.6032284418
C       -2.9287958928    0.9550910544    2.0264869689
C       -2.2558743844   -1.2007273297    1.1855335200
C       -4.5042528527   -0.3794008216    0.7230724694
C       -1.9514674952   -0.0413314344    1.9190740314
C       -0.1343975274    1.6599664390    3.4415893318
C        0.9335804362   -0.2158459057    1.6476124597
C       -5.8567386907   -0.5116397673    0.0845874935
C       -6.2946459247   -1.8770409638   -0.4136132894
C       -0.5446863895   -1.0812349130    3.8962794150
O       -6.6618034544    0.4109636171    0.1035506908
S       -0.2997830197    0.2098580886    2.6618361661
H       -4.9122921998    1.5877933144    1.5204852149
H       -3.7028190812   -2.2853960158    0.0455136936
H       -2.7145171350    1.8748829425    2.5629082872
H       -1.5026704270   -1.9721770778    1.0587630073
H        0.7380206947    2.2720775369    3.2566102399
H       -0.8809985965    1.9957569600    4.1481567413
H        1.8199228908    0.4029232339    1.5998838780
H        0.8549642472   -1.0867507086    1.0126331343
H       -6.0870914515   -2.6406327259    0.3405758345
H       -5.7711608788   -2.1201623947   -1.3418705628
H       -7.3708279215   -1.8694272336   -0.6097983203
H        0.3318497966   -1.1067044151    4.5466987652
H       -1.4320384691   -0.8498411496    4.4884564322
H       -0.6595487928   -2.0464196371    3.4018038962
27   

C       -4.1918755675    0.7816455330    1.4032130888
C       -3.5019315319   -1.3574016490    0.5359401149
C       -2.9493555023    0.9434930052    2.0171727821
C       -2.2457307412   -1.1856020641    1.1342802744
C       -4.5035223185   -0.3835481669    0.6811245663
C       -1.9622200448   -0.0424038509    1.9009797368
C       -0.1855736533    1.6321487195    3.4997788410
C        0.9289606028   -0.1753540773    1.6644587776
C       -5.8368665386   -0.5055728006    0.0008454661
C       -6.3846560537   -1.8965271660   -0.2626681008
C       -0.5683736609   -1.1252696934    3.8647788548
O       -6.5955579669    0.4530266799   -0.0708401847
S       -0.3235031608    0.2054134992    2.6729748332
H       -4.9308940021    1.5718080677    1.4964857682
H       -3.6762988368   -2.2503219208   -0.0538920215
H       -2.7485215010    1.8544537716    2.5735253538
H       -1.4822517800   -1.9444298979    0.9936078517
H        0.6832989082    2.2583119681    3.3482326393
H       -0.9469145315    1.9382968309    4.2040966364
H        1.8097093756    0.4529936167    1.6502485881
H        0.8682302765   -1.0257715621    1.0004054468
H       -6.1201410512   -2.5703970217    0.5564751326
H       -5.9793052426   -2.2826435337   -1.2013424290
H       -7.4751340264   -1.8562330033   -0.3395526885
H        0.2996175924   -1.1593942433    4.5261764932
H       -1.4664468903   -0.9228813728    4.4513879994
H       -0.6640822192   -2.0765382244    3.3401854175
27   

C       -4.1681507366    0.8098926709    1.3361439569
C       -3.4455602006   -1.3090920752    0.4516645659
C       -2.9371410709    0.9744842035    1.9722928925
C       -2.1996268511   -1.1348392460    1.0703439875
C       -4.4628448900   -0.3540081309    0.6051976206
C       -1.9400706997   -0.0019424042    1.8605954357
C       -0.2172991520    1.6513771356    3.5387922157
C        0.9569410583   -0.0803418926    1.6684361033
C       -5.7763609643   -0.4697080041   -0.1167952431
C       -6.4578904304   -1.8245601312   -0.1369137747
C       -0.5571219705   -1.1208119344    3.8145979646
O       -6.4637728312    0.5245730922   -0.3129821157
S       -0.3181645950    0.2488805780    2.6663924165
H       -4.9137111146    1.5947528250    1.4215432647
H       -3.6089482552   -2.1903021270   -0.1590055393
H       -2.7523725420    1.8806953703    2.5418643672
H       -1.4260400751   -1.8828439881    0.9271157207
H        0.6443955826    2.2948294559    3.4230216258
H       -0.9963062504    1.9241201809    4.2375300082
H        1.8283485167    0.5606718314    1.6902421809
H        0.9194872199   -0.9086619148    0.9753410658
H       -6.2361805062   -2.3716991752    0.7831467935
H       -6.1081445098   -2.4019204277   -0.9961880084
H       -7.5414489526   -1.6962784730   -0.2145405909
H        0.3006687013   -1.1583624926    4.4890071655
H       -1.4680897567   -0.9524292796    4.3919782617
H       -0.6260299164   -2.0579291545    3.2611718655
27   

C       -4.1409673029    0.7577831533    1.2909040799
C       -3.3570585118   -1.3266086806    0.3753639737
C       -2.9246339640    0.9353846072    1.9516770738
C       -2.1254651279   -1.1386543726    1.0181235229
C       -4.3983977144   -0.4013977464    0.5408214817
C       -1.9055610253   -0.0187275417    1.8390082648
C       -0.2539509955    1.6245336095    3.5978445080
C        0.9970393581   -0.0270737993    1.7048793775
C       -5.6904743889   -0.5369377405   -0.2206793346
C       -6.4898002691   -1.8063875157   -0.0059985335
C       -0.5347208404   -1.1598895583    3.7891575233
O       -6.3056573716    0.4660476760   -0.5593972380
S       -0.3057955592    0.2462520423    2.6835730376
H       -4.9051812977    1.5248513579    1.3720774295
H       -3.4947620893   -2.1948978648   -0.2598900316
H       -2.7680741725    1.8340604705    2.5412932306
H       -1.3326175426   -1.8653394045    0.8705570964
H        0.5968573879    2.2879738909    3.5210628441
H       -1.0543938671    1.8612775462    4.2853890801
H        1.8547924027    0.6296320117    1.7657178685
H        0.9910678193   -0.8340514829    0.9860754610
H       -6.3117121886   -2.1976059830    0.9990942657
H       -6.1950335760   -2.5573543535   -0.7427927932
H       -7.5583837046   -1.6010793795   -0.1178567174
H        0.3100666852   -1.1958873622    4.4798741872
H       -1.4608148791   -1.0290145979    4.3519926568
H       -0.5698382276   -2.0828183164    3.2093376468
27   

C       -4.1429304416    0.7293214075    1.2427613872
C       -3.3027936965   -1.3228581968    0.3001728804
C       -2.9393704927    0.9190675205    1.9238523371
C       -2.0839797292   -1.1212901162    0.9625453907
C       -4.3627136529   -0.4216210022    0.4710180611
C       -1.8993644427   -0.0128790317    1.8081832019
C       -0.3139347839    1.6165323131    3.6401062087
C        1.0048578588    0.0587677892    1.7143145682
C       -5.6446736539   -0.5849912032   -0.3096826779
C       -6.5731713647   -1.6943565590    0.1375361557
C       -0.5208029090   -1.1776642002    3.7416507650
O       -6.1628244814    0.3973937689   -0.8241603089
S       -0.3179134916    0.2674230039    2.6819202047
H       -4.9257922821    1.4772041932    1.3232207171
H       -3.4175508316   -2.1814722777   -0.3526730821
H       -2.8086079655    1.8094487587    2.5320638235
H       -1.2742172685   -1.8284065563    0.8118950774
H        0.5216703765    2.3020620381    3.5985812008
H       -1.1306769151    1.8118119211    4.3214665498
H        1.8457954581    0.7327827465    1.8102527090
H        1.0277172605   -0.7224533738    0.9678740877
H       -6.4313845790   -1.8976461970    1.2022165363
H       -6.3629391320   -2.6024940117   -0.4322755254
H       -7.6148543051   -1.4049170106   -0.0288089990
H        0.3156094385   -1.2104673172    4.4426614882
H       -1.4575248909   -1.0904642520    4.2952314689
H       -0.5211878346   -2.0833640489    3.1342732439
27   

C       -4.2439670155    0.5320692810    1.3776572169
C       -3.2460152111   -1.3239299654    0.2012285185
C       -3.0666995882    0.7087631544    2.1082427150
C       -2.0594506476   -1.1376681524    0.9224040088
C       -4.3294766277   -0.4541858033    0.3850354507
C       -1.9550034588   -0.1156209972    1.8834978290
C       -0.4500715857    1.4962363141    3.7922574455
C        0.9391937345    0.1007833707    1.7929435483
C       -5.6149615507   -0.6744051349   -0.3797598735
C       -6.6451603233   -1.5605455924    0.2877461745
C       -0.5281660713   -1.3132725079    3.7531954610
O       -5.5918967736   -0.6644595147   -1.6028259311
S       -0.3877545322    0.1930153944    2.7736806882
H       -5.0866990953    1.1894580279    1.5631960773
H       -3.3112660454   -2.1162428221   -0.5377356649
H       -3.0100984649    1.5108580107    2.8382672717
H       -1.2103141768   -1.7830841659    0.7203500497
H        0.3424413798    2.2322237190    3.7673487776
H       -1.2645073353    1.6136488083    4.4935420011
H        1.7384693249    0.8207632076    1.9093414990
H        1.0063386861   -0.6499728167    1.0183196012
H       -7.3548520727   -0.9432153995    0.8436583451
H       -6.1577774003   -2.2543582043    0.9777315879
H       -7.1905195730   -2.1375950285   -0.4646496576
H        0.3152015610   -1.3534202042    4.4453552017
H       -1.4629214609   -1.2908792022    4.3161767535
H       -0.5016396388   -2.1826367047    3.0951608606
27   

C       -4.2449437633    0.4498430084    1.3830669094
C       -3.1639766785   -1.3300375306    0.1640888181
C       -3.0812249606    0.6533122317    2.1282926917
C       -1.9915685042   -1.1171008978    0.9007038042
C       -4.2782694235   -0.5000400064    0.3514471683
C       -1.9347785065   -0.1173639957    1.8887811573
C       -0.5119442180    1.4983640707    3.8554322950
C        0.9484173775    0.2171791182    1.8306403745
C       -5.5526347132   -0.7931453204   -0.4023735752
C       -6.6777805187   -1.4133370126    0.4002738803
C       -0.4763688411   -1.3105013694    3.7374463784
O       -5.4941991162   -1.0791174247   -1.5910736858
S       -0.3884822442    0.2275134939    2.8020197367
H       -5.1179657066    1.0598938122    1.5887388364
H       -3.1947550907   -2.1121852647   -0.5882653185
H       -3.0640482212    1.4325958663    2.8845401717
H       -1.1178208884   -1.7265513977    0.6920401356
H        0.2494488514    2.2669088128    3.8570228619
H       -1.3349123914    1.5620699357    4.5536815430
H        1.7163145763    0.9659881127    1.9733272700
H        1.0524501456   -0.5089935806    1.0368640083
H       -7.3374912971   -0.6280858442    0.7768691056
H       -6.2729883117   -1.9776834003    1.2444821086
H       -7.2598393405   -2.0928111873   -0.2290181373
H        0.3620130147   -1.3366342923    4.4362994647
H       -1.4160163224   -1.3417172807    4.2918003884
H       -0.4092829486   -2.1590936521    3.0555885473
27   

C       -4.2484756271    0.3654174598    1.4011547292
C       -3.1124549210   -1.3531654813    0.1398591527
C       -3.0878339464    0.5927992031    2.1444471621
C       -1.9447947975   -1.1146755382    0.8758631552
C       -4.2548099593   -0.5660383003    0.3514405747
C       -1.9174081228   -0.1342060568    1.8843175733
C       -0.5400465355    1.4867273529    3.8782109945
C        0.9527029186    0.2936680919    1.8234143131
C       -5.5109527480   -0.9022391278   -0.4071604098
C       -6.7359247782   -1.2563795636    0.4126320418
C       -0.4151521754   -1.3174193451    3.7040957353
O       -5.4347487529   -1.3628525540   -1.5391742641
S       -0.3795828873    0.2412448662    2.7997629011
H       -5.1393804276    0.9420990256    1.6251579066
H       -3.1172645573   -2.1232694165   -0.6256418433
H       -3.0925937798    1.3563053794    2.9167954749
H       -1.0521218018   -1.6902839039    0.6517519445
H        0.1953622529    2.2800525990    3.8914376907
H       -1.3608342991    1.5090460863    4.5815609259
H        1.6958416273    1.0649112398    1.9771652442
H        1.0777029774   -0.4142522906    1.0162752443
H       -7.3184025310   -0.3543156880    0.6146715554
H       -6.4371451941   -1.7132567363    1.3597606172
H       -7.3621067231   -1.9660241909   -0.1358194411
H        0.4265733541   -1.3314125607    4.3992703552
H       -1.3510020801   -1.3895058410    4.2610747186
H       -0.3244695403   -2.1496157718    3.0049502942
27   

C       -4.3143504195    0.2930893369    1.3987601841
C       -3.1272404915   -1.3842180745    0.1243676548
C       -3.1546536708    0.5623446532    2.1295194653
C       -1.9619207627   -1.1009282732    0.8478058601
C       -4.3010067146   -0.6484120983    0.3566431149
C       -1.9619200306   -0.1235219089    1.8594196834
C       -0.6346365409    1.5202318648    3.8683870586
C        0.8876353451    0.4229370498    1.7823076176
C       -5.5420513108   -1.0362612518   -0.3973081660
C       -6.8409699635   -1.1209980262    0.3814338932
C       -0.3953212103   -1.2728880400    3.6481179024
O       -5.4612707679   -1.6434606980   -1.4579407315
S       -0.4327203057    0.2999737440    2.7683036093
H       -5.2197444209    0.8422444466    1.6329491000
H       -3.1063574545   -2.1539824372   -0.6412805061
H       -3.1785842551    1.3256686064    2.9017365707
H       -1.0502657461   -1.6414647183    0.6130195497
H        0.0683316391    2.3422250510    3.8900181220
H       -1.4498925697    1.4970321556    4.5781697191
H        1.6006012701    1.2206632560    1.9435346093
H        1.0336303116   -0.2657188981    0.9621131254
H       -7.3233087549   -0.1407016122    0.4042972817
H       -6.6481485943   -1.4559992437    1.4040258505
H       -7.5165619473   -1.8356986517   -0.0974607281
H        0.4506462003   -1.2615213420    4.3381745972
H       -1.3235716663   -1.3941807402    4.2092944268
H       -0.2732273211   -2.0896413244    2.9356718637
27   

C       -4.2902133813    0.2420041429    1.4037229034
C       -3.0656867710   -1.3854433415    0.0992538722
C       -3.1360566828    0.5241861480    2.1381935383
C       -1.9064875374   -1.0868533806    0.8263420624
C       -4.2621715046   -0.6938405679    0.3547484390
C       -1.9292246196   -0.1315080788    1.8581466365
C       -0.6457410212    1.4897736646    3.9126959105
C        0.9055478003    0.4872706935    1.8005371558
C       -5.4874695608   -1.0830761863   -0.4210336051
C       -6.8421701634   -0.9075195046    0.2405136241
C       -0.3364089649   -1.2898986339    3.6185212093
O       -5.4044315918   -1.7815695213   -1.4238475419
S       -0.4119711016    0.3046507541    2.7809241060
H       -5.2017806555    0.7756318986    1.6485824427
H       -3.0231908451   -2.1376457581   -0.6827806450
H       -3.1759143818    1.2745963752    2.9223545708
H       -0.9819087661   -1.5992184547    0.5792504368
H        0.0359234332    2.3285750928    3.9574621843
H       -1.4604094530    1.4262794948    4.6207448920
H        1.5977804991    1.2983529894    1.9838940795
H        1.0697618861   -0.1758805370    0.9629599468
H       -7.1801512843    0.1253464145    0.1242125478
H       -6.7816035410   -1.1569134394    1.3031495513
H       -7.5725565056   -1.5724211437   -0.2297044092
H        0.5072393589   -1.2755398435    4.3113616926
H       -1.2626061533   -1.4499991972    4.1733716363
H       -0.1916834577   -2.0840150974    2.8850352190
27   

C       -4.3014907409    0.1648635892    1.4343106918
C       -3.0580998122   -1.4288913767    0.1066182327
C       -3.1414193346    0.4772861540    2.1469233432
C       -1.8937482200   -1.0981981274    0.8109861739
C       -4.2734160238   -0.7826666104    0.3939489345
C       -1.9236858481   -0.1475994844    1.8464043794
C       -0.6527287283    1.4888600458    3.8961248166
C        0.8892563698    0.5572841415    1.7451654127
C       -5.4960897906   -1.1869897160   -0.3779003455
C       -6.8562215643   -0.7616630620    0.1442899676
C       -0.2646210679   -1.2769436240    3.5650780406
O       -5.4285771469   -1.9676528838   -1.3194193268
S       -0.4036877500    0.3236450946    2.7470727253
H       -5.2167720998    0.6819560666    1.6986200897
H       -3.0070441269   -2.1752529004   -0.6804804366
H       -3.1859853577    1.2276520398    2.9309148008
H       -0.9597297997   -1.5824190214    0.5434857964
H        0.0036863405    2.3476592194    3.9385047468
H       -1.4518879496    1.3921751388    4.6180130110
H        1.5596962281    1.3871855158    1.9252072947
H        1.0580195619   -0.0916182644    0.8973960103
H       -7.0054257420    0.3065479444   -0.0332086256
H       -6.9349672684   -0.9739625933    1.2137236478
H       -7.6413641410   -1.3170704964   -0.3770197510
H        0.5898059149   -1.2440000206    4.2439340041
H       -1.1758464945   -1.4719107630    4.1334389616
H       -0.1078559993   -2.0582989482    2.8204544441
27   

C       -4.3240020176    0.0979405189    1.5093330088
C       -3.0507774419   -1.4597438246    0.1661995464
C       -3.1607173377    0.4602570046    2.1923225370
C       -1.8841213287   -1.0776245004    0.8401083070
C       -4.2860644653   -0.8679406952    0.4859563786
C       -1.9277071078   -0.1227226899    1.8710523425
C       -0.6789936122    1.5626092454    3.8944037949
C        0.8532820885    0.6900346869    1.7119638867
C       -5.5055591273   -1.3108677551   -0.2699716271
C       -6.8432210348   -0.6783921397    0.0675495393
C       -0.1910861290   -1.1862255027    3.5551914063
O       -5.4424072897   -2.1654158845   -1.1453351634
S       -0.4087404406    0.4072660990    2.7401757705
H       -5.2507354519    0.5834432177    1.7924177884
H       -2.9877945372   -2.2067350072   -0.6194360999
H       -3.2158354315    1.2156879575    2.9707811736
H       -0.9380092835   -1.5257968431    0.5530013285
H       -0.0553910223    2.4460107280    3.9240885668
H       -1.4588910762    1.4351107070    4.6324433344
H        1.4949698927    1.5450623714    1.8786595479
H        1.0294177600    0.0474893931    0.8608668461
H       -6.8018164999    0.4003022431   -0.1048882633
H       -7.0999074912   -0.8778178913    1.1112021633
H       -7.6234157029   -1.1034102077   -0.5707005532
H        0.6743077643   -1.1194332130    4.2174681145
H       -1.0827747034   -1.4165738073    4.1410753795
H       -0.0181758843   -1.9614251308    2.8077171785
