21   
Generated by ForceBalance from scan.xyz: Frame 1 of 24
C        2.0079761232   -1.1691189801   -0.0668867239
C        0.8098404949   -0.6212383725    0.3904890430
C        3.0042608785   -1.5760251098    0.8264572930
C        1.5674469178   -0.8814473613    2.6764613974
C        0.5746079885   -0.4684708306    1.7699812652
C        2.7534846973   -1.4166225403    2.1861640106
C        5.6383042996   -1.7441231740    4.4473251287
C        4.5864735386   -0.9676203855    3.6263233489
N       -0.6511785880    0.0228611820    2.2391872443
O        3.7221836461   -1.8815040426    3.1058385627
F        6.3636129810   -0.8715582179    5.1996084226
F        6.4873097241   -2.3800863992    3.5943942481
F        3.9551329072   -0.0742717012    4.4549141884
F        5.1961890184   -0.2197208363    2.6667421939
H        2.1701236608   -1.2781245948   -1.1357511687
H        0.0460231587   -0.3147750858   -0.3206395523
H        3.9443751516   -1.9997073357    0.4904982889
H        1.4186558341   -0.7913872251    3.7483099242
H        5.1613211384   -2.4778828174    5.1014692035
H       -1.1429749957    0.6159798930    1.5807630167
H       -0.6093656091    0.4509887805    3.1569225162
21   
Generated by ForceBalance from scan.xyz: Frame 2 of 24
C        1.9938477641   -1.2015042685   -0.0585061584
C        0.8048631831   -0.6333099106    0.3977730480
C        2.9924790807   -1.6043996493    0.8341319047
C        1.5775271628   -0.8648862802    2.6824848869
C        0.5826707303   -0.4556842738    1.7764777225
C        2.7543773924   -1.4207711239    2.1931120940
C        5.6447978517   -1.7543450903    4.4522247045
C        4.5980211279   -0.9665902631    3.6205944470
N       -0.6336992420    0.0569258348    2.2469277386
O        3.7243498903   -1.8819958068    3.1134651040
F        6.1642133141   -0.9541573553    5.4232760620
F        6.6633743522   -2.1406504652    3.6367659956
F        3.9779500299   -0.0456470885    4.4220514871
F        5.2153851945   -0.2455074040    2.6441699903
H        2.1470590950   -1.3297865102   -1.1265435260
H        0.0389978684   -0.3302352141   -0.3126308447
H        3.9255705506   -2.0427666164    0.4974272161
H        1.4372618720   -0.7556866904    3.7536851137
H        5.1917039787   -2.6348855322    4.9130068790
H       -1.1245272187    0.6442630278    1.5826449870
H       -0.5800997503    0.4993578760    3.1572248933
21   
Generated by ForceBalance from scan.xyz: Frame 3 of 24
C        1.9565134324   -1.2113141518   -0.0655939763
C        0.7729577259   -0.6405414053    0.4014014400
C        2.9626471560   -1.6147117956    0.8183744954
C        1.5671583628   -0.8672487010    2.6786028444
C        0.5637064978   -0.4593591170    1.7817232530
C        2.7378924546   -1.4268855683    2.1792601558
C        5.6339809288   -1.7718139057    4.4414571326
C        4.6318371363   -0.9814843890    3.5426870035
N       -0.6474390741    0.0561327889    2.2623343406
O        3.7116660468   -1.8860124190    3.0966899020
F        5.9355610284   -1.0516808558    5.5563322793
F        6.7885786305   -1.9889057483    3.7563113768
F        4.0541259375    0.0288943766    4.2587704946
F        5.2882452367   -0.3721078259    2.5160825016
H        2.0991558551   -1.3422223549   -1.1347828119
H        0.0008021265   -0.3378580087   -0.3023079455
H        3.8910466462   -2.0559832988    0.4728243010
H        1.4393623661   -0.7539206892    3.7510617293
H        5.2042379222   -2.7303557306    4.7390160268
H       -1.1428064105    0.6440819170    1.6019756853
H       -0.5851521365    0.4988936291    3.1719188050
21   
Generated by ForceBalance from scan.xyz: Frame 4 of 24
C        1.9337095445   -1.2186461478   -0.0600216102
C        0.7571860446   -0.6421497383    0.4174983217
C        2.9488681277   -1.6203017674    0.8144379794
C        1.5778156595   -0.8583914793    2.6867407135
C        0.5650556451   -0.4532221296    1.7992990151
C        2.7410460797   -1.4241947456    2.1770616105
C        5.6298829821   -1.7599734433    4.4535089483
C        4.6715502191   -0.9826234689    3.4905499507
N       -0.6389277542    0.0682649549    2.2912265264
O        3.7222865657   -1.8800946432    3.0877660675
F        5.6659898983   -1.1543907777    5.6710013474
F        6.8915032236   -1.7750915116    3.9459622645
F        4.1172897637    0.0884646093    4.1297872258
F        5.3628112238   -0.4686163807    2.4355842445
H        2.0634232575   -1.3561140767   -1.1300404017
H       -0.0224173665   -0.3411701858   -0.2787042330
H        3.8713020151   -2.0667651267    0.4598097430
H        1.4637567220   -0.7381266660    3.7600502028
H        5.2822978111   -2.7873478183    4.5772544867
H       -1.1398904653    0.6547876281    1.6338232240
H       -0.5647940888    0.5150446456    3.1979611822
21   
Generated by ForceBalance from scan.xyz: Frame 5 of 24
C        1.9313188710   -1.1827224168   -0.0627897721
C        0.7527419738   -0.6172124785    0.4225382088
C        2.9476513276   -1.5953103993    0.8055286126
C        1.5738479380   -0.8614179431    2.6868737963
C        0.5583424951   -0.4481797555    1.8066882152
C        2.7386051238   -1.4179354337    2.1707769510
C        5.5897247926   -1.7575556336    4.4848246324
C        4.7317155379   -1.0245454318    3.4045585083
N       -0.6476414896    0.0624199991    2.3052030329
O        3.7120140971   -1.8792302273    3.0866264848
F        5.3715098829   -1.2005727583    5.7061024145
F        6.9134823416   -1.6572382109    4.1892844480
F        4.2586124771    0.1595399280    3.8862140378
F        5.4936753676   -0.7169562046    2.3174379967
H        2.0612628025   -1.3053311402   -1.1346003516
H       -0.0275489758   -0.3094223281   -0.2698681201
H        3.8691260711   -2.0369962905    0.4431525634
H        1.4630613252   -0.7541365193    3.7621262012
H        5.3155633114   -2.8136537468    4.5222408754
H       -1.1483036229    0.6597287760    1.6573460677
H       -0.5763505736    0.4929355300    3.2200021398
21   
Generated by ForceBalance from scan.xyz: Frame 6 of 24
C        1.9079059267   -1.1943347986   -0.0576709319
C        0.7380042145   -0.6161662480    0.4335933513
C        2.9284906486   -1.6085022051    0.8050469504
C        1.5774319057   -0.8502339248    2.6927378977
C        0.5574738246   -0.4359192800    1.8182864203
C        2.7331785512   -1.4195814282    2.1708378223
C        5.5673475272   -1.7366830459    4.4947479765
C        4.7445725070   -1.0364728856    3.3781189362
N       -0.6399854202    0.0874473830    2.3236949485
O        3.7106678708   -1.8808173349    3.0820478179
F        5.1028710410   -1.3487034237    5.7124214229
F        6.8825599471   -1.4025727427    4.3954603640
F        4.2948048025    0.1778513625    3.8025553505
F        5.5349858612   -0.8003700946    2.2920521325
H        2.0274375758   -1.3259783673   -1.1296355601
H       -0.0460885861   -0.3074882550   -0.2541199449
H        3.8431222604   -2.0603281648    0.4378265927
H        1.4773931105   -0.7344920297    3.7681757685
H        5.4714408371   -2.8209701321    4.4053939159
H       -1.1419246693    0.6842207492    1.6763726638
H       -0.5576679056    0.5227757152    3.2352696212
21   
Generated by ForceBalance from scan.xyz: Frame 7 of 24
C        1.9151008183   -1.2103847000   -0.0581178324
C        0.7546179804   -0.6182131999    0.4385789395
C        2.9354525594   -1.6365889094    0.7991181359
C        1.6033842222   -0.8593645723    2.6936324290
C        0.5833865745   -0.4348683504    1.8241052136
C        2.7489145713   -1.4431877548    2.1655384850
C        5.5962487830   -1.7767073959    4.4661650206
C        4.7908066009   -1.1034933167    3.3316115805
N       -0.6055523861    0.1022578883    2.3348184713
O        3.7228000367   -1.9131579714    3.0763845180
F        4.9685045180   -1.5571008989    5.6534239554
F        6.8482846237   -1.2472069735    4.5249406094
F        4.4042857663    0.1493481113    3.7010498831
F        5.5941187556   -0.9558375664    2.2350597484
H        2.0272934280   -1.3444652028   -1.1305726003
H       -0.0294728411   -0.3011931230   -0.2453420044
H        3.8419008881   -2.1004764110    0.4269350452
H        1.5117276224   -0.7415505047    3.7696587818
H        5.6717859687   -2.8529679254    4.2936604519
H       -1.1034931156    0.7051487840    1.6900965730
H       -0.5149034347    0.5352403312    3.2466984791
21   
Generated by ForceBalance from scan.xyz: Frame 8 of 24
C        1.9049837584   -1.2398604674   -0.0516018591
C        0.7531283207   -0.6253335569    0.4379505947
C        2.9206307932   -1.6672141181    0.8106581845
C        1.6012058862   -0.8457936640    2.6952604844
C        0.5858108984   -0.4201575843    1.8209028408
C        2.7382327578   -1.4518798310    2.1742159877
C        5.6071502949   -1.7854989521    4.4566161328
C        4.7806709511   -1.1227480833    3.3365042135
N       -0.5953392806    0.1394427698    2.3250088104
O        3.7068343856   -1.9215505334    3.0914310627
F        4.8710754174   -1.8185882100    5.6013309884
F        6.7292036694   -1.0500644158    4.6845657878
F        4.4200374870    0.1399038153    3.6981171418
F        5.5844374518   -0.9903674610    2.2329163170
H        2.0141497773   -1.3905216150   -1.1221638454
H       -0.0275372598   -0.3077139913   -0.2495775001
H        3.8206235541   -2.1479708617    0.4443100481
H        1.5122659225   -0.7126155032    3.7696921887
H        5.8915553147   -2.8036311555    4.1795241539
H       -1.0872946319    0.7390426873    1.6726774103
H       -0.4992301698    0.5826115048    3.2313875734
21   
Generated by ForceBalance from scan.xyz: Frame 9 of 24
C        1.8837189553   -1.3030474028   -0.0210471103
C        0.7507001497   -0.6437820535    0.4542036419
C        2.8963995508   -1.7190839048    0.8499540483
C        1.6110985115   -0.7984336561    2.7123316603
C        0.5991966211   -0.3819817766    1.8293816533
C        2.7301070492   -1.4486874702    2.2055320422
C        5.6574717467   -1.7829696977    4.4325085326
C        4.7495138454   -1.0922476334    3.3919885595
N       -0.5648821227    0.2234670708    2.3204517444
O        3.6990653952   -1.9099566093    3.1271272370
F        4.9113836815   -2.1957988473    5.4944519296
F        6.5775521829   -0.8882963775    4.8839438379
F        4.3655690021    0.1379546077    3.8340756356
F        5.5170173069   -0.8618127938    2.2735389757
H        1.9805098261   -1.4965978646   -1.0858983667
H       -0.0283174890   -0.3346170430   -0.2390140900
H        3.7835446826   -2.2324406027    0.4963987024
H        1.5318588226   -0.6248773375    3.7816306547
H        6.1685423947   -2.6429102050    3.9928411765
H       -1.0480443303    0.8086752684    1.6487857302
H       -0.4503484604    0.7000302454    3.2075515151
21   
Generated by ForceBalance from scan.xyz: Frame 10 of 24
C        1.8685355760   -1.3316209552   -0.0043470515
C        0.7448870504   -0.6516072796    0.4639203053
C        2.8815078539   -1.7435343111    0.8682989110
C        1.6162483510   -0.7760778487    2.7200221421
C        0.6041356100   -0.3644043899    1.8351083539
C        2.7257336023   -1.4472418380    2.2196722655
C        5.6850867955   -1.7760989217    4.4273494484
C        4.7524663779   -1.0953816630    3.3902800216
N       -0.5507488792    0.2617871322    2.3218750559
O        3.6932525499   -1.9039107568    3.1454044550
F        4.9498569185   -2.4511722114    5.3532177634
F        6.4020824556   -0.8215101601    5.0792163476
F        4.3879391448    0.1483113900    3.8092000408
F        5.5127051599   -0.8861337687    2.2574729767
H        1.9576188461   -1.5452134297   -1.0660259976
H       -0.0344480998   -0.3463935068   -0.2307206587
H        3.7608347289   -2.2730593296    0.5191818413
H        1.5438675685   -0.5831073596    3.7864658190
H        6.3669964964   -2.4713672145    3.9323543034
H       -1.0315399981    0.8402335113    1.6426989934
H       -0.4261166254    0.7526075206    3.1997890918
21   
Generated by ForceBalance from scan.xyz: Frame 11 of 24
C        1.8523171264   -1.4033012396   -0.0018294548
C        0.7459265974   -0.6875215013    0.4542069810
C        2.8623292517   -1.8109773059    0.8759528689
C        1.6285373597   -0.7693372239    2.7091253928
C        0.6207510640   -0.3605603318    1.8178828117
C        2.7212550292   -1.4754476760    2.2196478916
C        5.7123619963   -1.7956527633    4.4071752209
C        4.7300864401   -1.1042182257    3.4095738732
N       -0.5176188853    0.3031821618    2.2939760031
O        3.6896594963   -1.9299066616    3.1452159304
F        5.0822442666   -2.7841308191    5.0964533358
F        6.1655247893   -0.8823735216    5.3079680233
F        4.3323069044    0.1098668397    3.8848245672
F        5.4599058421   -0.8203437958    2.2730676589
H        1.9302166958   -1.6477119824   -1.0577130502
H       -0.0315122893   -0.3850147704   -0.2437603208
H        3.7291266177   -2.3674391483    0.5371822732
H        1.5651361712   -0.5463742524    3.7701837360
H        6.5608662267   -2.2217310233    3.8673694680
H       -0.9903286194    0.8724593799    1.6014819420
H       -0.3761009161    0.8165108927    3.1563472162
21   
Generated by ForceBalance from scan.xyz: Frame 12 of 24
C        1.8311110884   -1.4161203725    0.0139377072
C        0.7327701883   -0.6855052575    0.4659646324
C        2.8444296915   -1.8168900016    0.8911330573
C        1.6307916590   -0.7366819070    2.7148372447
C        0.6189180531   -0.3354752517    1.8248671173
C        2.7154012415   -1.4584573847    2.2302071742
C        5.7107077731   -1.7480134875    4.4306448664
C        4.7440230731   -1.0912548762    3.3867935971
N       -0.5116365340    0.3436169574    2.2982376718
O        3.6859795942   -1.9044401349    3.1573081064
F        5.1873373424   -2.9034080769    4.9163571198
F        5.9099291921   -0.8997889430    5.4758323341
F        4.3637651859    0.1494916346    3.8052551004
F        5.4814105900   -0.8756626947    2.2403934451
H        1.8997091814   -1.6783719157   -1.0383179670
H       -0.0475443468   -0.3892381109   -0.2314646763
H        3.7044720866   -2.3855869666    0.5556365961
H        1.5766885231   -0.4955195171    3.7724381887
H        6.6732107948   -1.9642905669    3.9618690235
H       -0.9854413418    0.9050029717    1.6000907515
H       -0.3605990516    0.8695744763    3.1513224213
21   
Generated by ForceBalance from scan.xyz: Frame 13 of 24
C        1.8307488139   -1.4591223485    0.0274461832
C        0.7420606049   -0.7109807697    0.4742081253
C        2.8382331717   -1.8676545756    0.9077886229
C        1.6386273627   -0.7585914805    2.7230158234
C        0.6319430570   -0.3500662597    1.8305558230
C        2.7138177746   -1.4984167518    2.2444867562
C        5.6947294641   -1.8000138856    4.4608045317
C        4.7594899114   -1.1609587321    3.3812886958
N       -0.4897928219    0.3473027016    2.2987528362
O        3.6768902436   -1.9495239727    3.1761888348
F        5.3238713215   -3.0780833825    4.7253611064
F        5.6364948212   -1.0812456096    5.6156237840
F        4.4063380523    0.1005223677    3.7632126016
F        5.5058152542   -1.0055811675    2.2341739537
H        1.8959608990   -1.7297922670   -1.0229055917
H       -0.0340783585   -0.4093780160   -0.2255797518
H        3.6898120951   -2.4514252215    0.5767284430
H        1.5882690749   -0.5089848916    3.7788903381
H        6.7268347503   -1.7984238569    4.1023144938
H       -0.9550036152    0.9110001875    1.5966856245
H       -0.3321262281    0.8764912430    3.1486391235
21   
Generated by ForceBalance from scan.xyz: Frame 14 of 24
C        1.8254714639   -1.4838015181    0.0526605306
C        0.7423853926   -0.7222872448    0.4903843941
C        2.8342478445   -1.8825004300    0.9360639206
C        1.6474466054   -0.7354848028    2.7366292139
C        0.6395536488   -0.3375719780    1.8407668912
C        2.7166358061   -1.4892948304    2.2665621526
C        5.6896997373   -1.7543671517    4.4836811338
C        4.7747609065   -1.1476216725    3.3812435888
N       -0.4767719614    0.3737742730    2.3008506103
O        3.6811591515   -1.9277209489    3.2024453328
F        5.5294953270   -3.1001326853    4.5474002149
F        5.3836609563   -1.2121836689    5.6948966523
F        4.4370156813    0.1284234049    3.7338127234
F        5.5245450244   -1.0365591679    2.2339069945
H        1.8850869837   -1.7731381023   -0.9930391752
H       -0.0349121139   -0.4287475241   -0.2115654409
H        3.6810904114   -2.4771979671    0.6123737052
H        1.6029914299   -0.4672879454    3.7882476691
H        6.7361875251   -1.5323171640    4.2593636439
H       -0.9411925823    0.9281786329    1.5909027042
H       -0.3132788325    0.9162791356    3.1411801726
21   
Generated by ForceBalance from scan.xyz: Frame 15 of 24
C        1.7986918745   -1.5074658531    0.0608963398
C        0.7290446393   -0.7256578483    0.4959116161
C        2.8102030735   -1.9041812721    0.9420419167
C        1.6530040276   -0.7127004573    2.7348679541
C        0.6425987079   -0.3176508558    1.8406433389
C        2.7078912938   -1.4874452880    2.2666028252
C        5.6811424425   -1.7442920079    4.4682360342
C        4.7820692536   -1.1573775214    3.3558590792
N       -0.4611370353    0.4145350628    2.2982230771
O        3.6749915618   -1.9218376860    3.2015612368
F        5.7444541313   -3.0959303319    4.3540639109
F        5.1712165948   -1.4218778553    5.6893948096
F        4.4729683212    0.1340522924    3.6882444505
F        5.5306769951   -1.0835467305    2.2066386995
H        1.8454066993   -1.8144310537   -0.9804195155
H       -0.0508761669   -0.4340812737   -0.2039474881
H        3.6470024219   -2.5146966506    0.6215920374
H        1.6213486806   -0.4275021113    3.7825236250
H        6.6907428627   -1.3320547269    4.3900077612
H       -0.9252708900    0.9625351851    1.5831489435
H       -0.2841193700    0.9686849150    3.1281362664
21   
Generated by ForceBalance from scan.xyz: Frame 16 of 24
C        1.7902551685   -1.5400434022    0.0843220689
C        0.7274341050   -0.7404318193    0.5034056726
C        2.7991479521   -1.9271880994    0.9727870316
C        1.6549404397   -0.6897096217    2.7410841222
C        0.6467515091   -0.3048089948    1.8398211725
C        2.7028432627   -1.4829425527    2.2887022727
C        5.6864561310   -1.7350908846    4.4714197165
C        4.7833804749   -1.1552412286    3.3660532084
N       -0.4505040702    0.4451844020    2.2838072109
O        3.6667251292   -1.9062889364    3.2324833879
F        5.9805986902   -3.0328646205    4.1908395034
F        5.0369945795   -1.6788850110    5.6666746904
F        4.5027017502    0.1473724448    3.6930670311
F        5.5207783372   -1.0966779773    2.2097688555
H        1.8336343684   -1.8687163640   -0.9504828614
H       -0.0508347376   -0.4566868896   -0.2015186663
H        3.6303698014   -2.5511566125    0.6640965024
H        1.6263640879   -0.3834296525    3.7828545194
H        6.6154719007   -1.1630717411    4.5418171700
H       -0.9114209097    0.9821446802    1.5583519050
H       -0.2681329487    1.0145261903    3.1021840029
21   
Generated by ForceBalance from scan.xyz: Frame 17 of 24
C        1.7657665291   -1.6098028640    0.1183169339
C        0.7220549308   -0.7717875092    0.5098604467
C        2.7687458286   -1.9849475943    1.0183042548
C        1.6556424724   -0.6587064378    2.7418309180
C        0.6537855203   -0.2845070557    1.8289218991
C        2.6851243212   -1.4903826913    2.3167803938
C        5.7055980665   -1.7546879599    4.4531663168
C        4.7487272820   -1.1354379436    3.4140636490
N       -0.4258090888    0.5051902427    2.2470926883
O        3.6460115697   -1.9025511741    3.2690817084
F        6.2620073351   -2.8865897893    3.9390042432
F        5.0122201845   -2.0892007075    5.5746214831
F        4.4546047416    0.1428841031    3.8314388736
F        5.4420514102   -0.9796986547    2.2425174452
H        1.7993781218   -1.9768212613   -0.9038748351
H       -0.0515150476   -0.4973183379   -0.2038154479
H        3.5872304827   -2.6359215020    0.7317648790
H        1.6349288706   -0.3145157096    3.7717408552
H        6.4989691338   -1.0490207200    4.7123461886
H       -0.8778105500    1.0236766502    1.5028240871
H       -0.2280504580    1.1017750631    3.0421650915
21   
Generated by ForceBalance from scan.xyz: Frame 18 of 24
C        1.7089993999   -1.6820855105    0.1431022828
C        0.6894541351   -0.8066408791    0.5161112018
C        2.7037742862   -2.0621742199    1.0499282692
C        1.6304974313   -0.6646150482    2.7427735039
C        0.6370654110   -0.2852672872    1.8227280781
C        2.6360527855   -1.5338924445    2.3359139947
C        5.6710401731   -1.8410301091    4.4612956026
C        4.7011925556   -1.1989798244    3.4357505343
N       -0.4199499247    0.5432912936    2.2234253846
O        3.5882192235   -1.9515904088    3.2947998905
F        6.4486605251   -2.7674732267    3.8337113396
F        4.9665463567   -2.4769318652    5.4340864179
F        4.4260449001    0.0794565457    3.8754784652
F        5.3717175743   -1.0252710234    2.2564334191
H        1.7302794538   -2.0743201603   -0.8700055280
H       -0.0779609804   -0.5287408259   -0.2028400583
H        3.5045195514   -2.7409004025    0.7778593390
H        1.6205845067   -0.2953257513    3.7640408853
H        6.3127915998   -1.0799648002    4.9116492701
H       -0.8604850040    1.0542421254    1.4671508579
H       -0.2035059111    1.1550269595    3.0019532435
21   
Generated by ForceBalance from scan.xyz: Frame 19 of 24
C        1.6746952415   -1.7070505362    0.1577821872
C        0.6704554531   -0.8116127140    0.5246964266
C        2.6708536082   -2.0875402771    1.0628555341
C        1.6314804834   -0.6499473254    2.7424716296
C        0.6366343169   -0.2706895192    1.8239016180
C        2.6217364944   -1.5393793962    2.3414652678
C        5.6711569995   -1.8549599210    4.4615122953
C        4.7031222842   -1.2200149964    3.4137489792
N       -0.4052226430    0.5790216951    2.2201903933
O        3.5751166316   -1.9566532939    3.2992029871
F        6.6590255544   -2.5408562457    3.8217139339
F        5.0029197876   -2.7310502754    5.2555876920
F        4.4448027166    0.0712626208    3.8309689115
F        5.3556528613   -1.0771020056    2.2237706885
H        1.6827968673   -2.1147929031   -0.8493687839
H       -0.0984776542   -0.5332671731   -0.1924869696
H        3.4595395911   -2.7816477724    0.7944631934
H        1.6344643749   -0.2645456420    3.7578330887
H        6.1228646087   -1.0768123817    5.0809177892
H       -0.8446196902    1.0841612003    1.4593401684
H       -0.1730738467    1.2002893046    2.9865602942
21   
Generated by ForceBalance from scan.xyz: Frame 20 of 24
C        1.6575375399   -1.7314413731    0.1760276281
C        0.6671675335   -0.8172138038    0.5341654722
C        2.6571704351   -2.1055490700    1.0798468255
C        1.6493229189   -0.6233665530    2.7400280278
C        0.6510949833   -0.2503434838    1.8225751089
C        2.6257598801   -1.5319877460    2.3479294930
C        5.6714253875   -1.8358412111    4.4785133606
C        4.7158656655   -1.2109932853    3.4049944866
N       -0.3771677581    0.6195123717    2.2108534038
O        3.5829684012   -1.9448600712    3.3035081066
F        6.8389089249   -2.2197908700    3.8941800567
F        5.1046418948   -2.9277097686    5.0530649123
F        4.4522613976    0.0841492873    3.8087915003
F        5.3620464995   -1.0877911587    2.2123260505
H        1.6518983546   -2.1590016621   -0.8228900051
H       -0.1048392296   -0.5438973018   -0.1816390263
H        3.4353535140   -2.8141223118    0.8186073174
H        1.6650677444   -0.2177421430    3.7473133357
H        5.8911420803   -1.0997286510    5.2550198480
H       -0.8177029539    1.1139984909    1.4436824613
H       -0.1303498685    1.2539350516    2.9617056072
21   
Generated by ForceBalance from scan.xyz: Frame 21 of 24
C        1.6278255160   -1.7460599724    0.1906592240
C        0.6502862950   -0.8174820331    0.5471863221
C        2.6313159317   -2.1202014625    1.0902233038
C        1.6543293461   -0.6085372196    2.7405803775
C        0.6510609731   -0.2352559384    1.8287924518
C        2.6183000825   -1.5319265625    2.3520252700
C        5.6555012556   -1.8394119070    4.4799719259
C        4.7323705268   -1.2341631256    3.3712990459
N       -0.3646207968    0.6497720620    2.2162890676
O        3.5784162990   -1.9430977054    3.3051220382
F        6.9277772963   -1.9491514056    4.0128161107
F        5.2224684668   -3.0697086750    4.8584578639
F        4.4946575931    0.0795090136    3.7250410061
F        5.3782757760   -1.1822586249    2.1753999260
H        1.6086381242   -2.1852419779   -0.8030523711
H       -0.1252219105   -0.5445303192   -0.1649346705
H        3.3988498949   -2.8407478050    0.8304313435
H        1.6837372995   -0.1907753677    3.7426003319
H        5.6568790420   -1.1851299658    5.3548817022
H       -0.8073564005    1.1394996787    1.4473230773
H       -0.1039430948    1.2908681824    2.9567237709
21   
Generated by ForceBalance from scan.xyz: Frame 22 of 24
C        2.0725265148   -0.9944334719   -0.0851921417
C        0.8379526103   -0.5546044152    0.3914931405
C        3.0757819283   -1.4212461767    0.7908673775
C        1.5742383701   -0.9643334820    2.6624391647
C        0.5731763371   -0.5335017361    1.7738629267
C        2.7963258300   -1.3903889980    2.1544789450
C        5.6059914449   -1.7276854017    4.5486742614
C        4.6495630153   -0.9856539968    3.5715740139
N       -0.6863868452   -0.1531825437    2.2573162028
O        3.7660526152   -1.8806113052    3.0590615967
F        6.8152665189   -1.1069013224    4.5631238098
F        5.7765373073   -3.0223137201    4.1723993095
F        4.0039408546   -0.0140497340    4.3076386041
F        5.3456078118   -0.3288996189    2.6059863613
H        2.2570414699   -1.0049967497   -1.1559489658
H        0.0688761172   -0.2323903921   -0.3069218345
H        4.0409042279   -1.7671768970    0.4377859043
H        1.4053100907   -0.9727754374    3.7352640284
H        5.1867646512   -1.7105971598    5.5577698309
H       -1.1999449903    0.4665897863    1.6414254496
H       -0.6836647958    0.1963808338    3.2086375028
21   
Generated by ForceBalance from scan.xyz: Frame 23 of 24
C        2.0630024983   -1.0341927730   -0.0770842187
C        0.8372214994   -0.5664032631    0.3957433843
C        3.0649595654   -1.4547847958    0.8034742628
C        1.5790643373   -0.9344490047    2.6712995880
C        0.5792621055   -0.5095569478    1.7783956399
C        2.7925008222   -1.3891795057    2.1671693662
C        5.6135312011   -1.7234487260    4.5274553485
C        4.6493894082   -0.9724287894    3.5796449104
N       -0.6723125098   -0.1003630589    2.2590240422
O        3.7614063670   -1.8709523168    3.0772076369
F        6.6976053888   -0.9423439709    4.7795893238
F        6.0275797810   -2.8869133017    3.9577867669
F        4.0146293728   -0.0078706400    4.3302061035
F        5.3345862932   -0.3134214880    2.6080896652
H        2.2416382917   -1.0715123512   -1.1482379573
H        0.0692028946   -0.2494263248   -0.3062057839
H        4.0236750609   -1.8218441408    0.4541755267
H        1.4157718247   -0.9157707605    3.7448507577
H        5.1098363597   -1.9517150512    5.4702832307
H       -1.1803454490    0.5121650707    1.6314027049
H       -0.6597069686    0.2712663274    3.2018819022
21   
Generated by ForceBalance from scan.xyz: Frame 24 of 24
C        2.0378513241   -1.1193238954   -0.0748317768
C        0.8294009459   -0.6011841464    0.3900265476
C        3.0342490110   -1.5374774070    0.8131150951
C        1.5776577849   -0.9145929607    2.6729820586
C        0.5845372646   -0.4908279767    1.7718479635
C        2.7738756228   -1.4195170802    2.1753932054
C        5.6293231975   -1.7644197737    4.4770901073
C        4.6094100700   -0.9925247516    3.6160907380
N       -0.6510148236   -0.0301617184    2.2468365085
O        3.7420012083   -1.8976063114    3.0884856529
F        6.5354501305   -0.8901485235    4.9925419810
F        6.2874644901   -2.6700129206    3.7033577245
F        3.9686812302   -0.0912686548    4.4333638943
F        5.2453182450   -0.2589058375    2.6639639671
H        2.2076508299   -1.1967376961   -1.1452636704
H        0.0652868420   -0.2857923631   -0.3168926087
H        3.9812787279   -1.9404105287    0.4712372198
H        1.4215665775   -0.8562595733    3.7460485868
H        5.1263490952   -2.2874141554    5.2944522553
H       -1.1471547267    0.5739807126    1.6018196521
H       -0.6204330074    0.3734504167    3.1760481002
