24   

C       -0.6262052373    1.2032210833   -0.0585331952
C        0.5635715259    0.6605188954    0.3739303750
C        1.5239331323    1.4391078584    1.2314323659
C       -1.5713562651    0.4572454564   -0.9507458094
C       -0.1020526979   -1.5101555745   -0.6671088201
C        3.6717224854    1.7685142146    2.4019592076
C        3.6130008930    0.3974985536    0.3258994193
N        0.8921958352   -0.6570094359   -0.0218197457
N       -0.8533492170   -0.6585818343   -1.5829477715
N        2.8790424807    1.0949382574    1.3773304190
O        1.1567470494    2.4617990752    1.8123676603
H       -0.8628288612    2.2261213316    0.2100668113
H       -2.4083223513    0.0776230736   -0.3555767832
H       -1.9682150272    1.1320533654   -1.7162365503
H        0.3944105431   -2.3102474232   -1.2249552427
H       -0.7689233240   -1.9522445045    0.0811095287
H        4.6119444825    1.2350622277    2.5735623816
H        3.1263966049    1.7904198877    3.3514239178
H        3.8947950667    2.7953952249    2.0952383345
H        4.6045537881    0.8439472147    0.1994812566
H        3.1071288024    0.4929462392   -0.6404453450
H        3.7342756872   -0.6604529910    0.5761620781
H        1.7501477207   -1.0797452584    0.3130038039
H       -1.4581701089   -1.2014133149   -2.1899230797
24   

C       -0.5828826824    1.1877321034   -0.0976183124
C        0.5506660577    0.6066449144    0.4227074343
C        1.4836639374    1.3522963927    1.3368038258
C       -1.4992734565    0.4550551045   -1.0301777743
C       -0.1433786994   -1.5659989179   -0.5868609177
C        3.6798964482    1.7456716037    2.3966141366
C        3.5595154047    0.4770193975    0.2515544739
N        0.8437611481   -0.7366878973    0.0991048189
N       -0.7925052557   -0.7125336601   -1.5772617102
N        2.8636124990    1.0966167390    1.3756122849
O        1.0593535571    2.2477287168    2.0704236607
H       -0.7920718776    2.2249186454    0.1362326594
H       -2.3912398630    0.1328904333   -0.4829172861
H       -1.8117594251    1.1206757858   -1.8414160831
H        0.3518378505   -2.4051102397   -1.0853273245
H       -0.8782162956   -1.9535402185    0.1271666370
H        4.6615309285    1.2665105929    2.4660311912
H        3.2009692543    1.6616519819    3.3778538740
H        3.8167153974    2.8046342632    2.1556315701
H        4.5063414516    0.9936352539    0.0646320056
H        2.9757649913    0.5561846554   -0.6713556958
H        3.7678973733   -0.5762094670    0.4610440983
H        1.6623009378   -1.1814502659    0.4996284578
H       -1.3807484288   -1.2490488845   -2.2058178361
24   

C       -0.5311131057    1.1812048810   -0.1320604883
C        0.5351287807    0.5561018168    0.4694374941
C        1.4516438287    1.2601362917    1.4344762790
C       -1.4233282972    0.4675581449   -1.1022410094
C       -0.2015991453   -1.6068617402   -0.5232759493
C        3.6839268509    1.7197357305    2.3934508242
C        3.4979575242    0.5590497862    0.1861975340
N        0.7783466581   -0.8100112868    0.2099143187
N       -0.7421323417   -0.7479731528   -1.5737697063
N        2.8435064537    1.1026363002    1.3730643406
O        0.9954407656    2.0015302817    2.3081198512
H       -0.7013769124    2.2322411377    0.0679295462
H       -2.3623972782    0.2038433174   -0.6047090938
H       -1.6514064329    1.1241486523   -1.9482033134
H        0.2829901382   -2.4809211689   -0.9693949373
H       -0.9999888796   -1.9410637059    0.1482063935
H        4.6866076078    1.2809899791    2.3812021846
H        3.2624787046    1.5518486661    3.3901238049
H        3.7646612092    2.7968156258    2.2162845365
H        4.3946398122    1.1414674288   -0.0481380361
H        2.8489196526    0.6179800218   -0.6935178995
H        3.7854194013   -0.4835560747    0.3505712975
H        1.5501385679   -1.2808477961    0.6700789297
H       -1.3154360134   -1.2722506996   -2.2260623840
24   

C       -0.3960909726    1.1803682222   -0.0998529158
C        0.5973904712    0.5102105026    0.5713560688
C        1.5252271129    1.1715821667    1.5594084122
C       -1.2831535339    0.4852685219   -1.0882379117
C       -0.2104264317   -1.6369640894   -0.3904657415
C        3.7978502790    1.7178353833    2.3791448725
C        3.5024894432    0.6657907012    0.1257099645
N        0.7736027556   -0.8744890383    0.3732151711
N       -0.6497458185   -0.7805923643   -1.4903689690
N        2.9134189161    1.1317912395    1.3782275364
O        1.0793556222    1.7413016975    2.5588715580
H       -0.5090181756    2.2460703125    0.0567713830
H       -2.2566483610    0.2890822936   -0.6269435200
H       -1.4362855413    1.1250742165   -1.9634325701
H        0.2470508422   -2.5482418136   -0.7881339516
H       -1.0590715967   -1.9086687297    0.2466901610
H        4.7996400230    1.2834317605    2.3036188686
H        3.4285886785    1.5154566138    3.3899148437
H        3.8671608452    2.8004016417    2.2342383605
H        4.3440878279    1.3069392848   -0.1547731879
H        2.7857285791    0.7093192361   -0.7005777355
H        3.8591091586   -0.3630576648    0.2314505007
H        1.4932977836   -1.3720978266    0.8871503887
H       -1.2196933730   -1.2926433364   -2.1552423759
24   

C       -0.3424079090    1.1946352521   -0.1762879134
C        0.5423535814    0.4744974475    0.5876943028
C        1.4425935155    1.0764774920    1.6407896329
C       -1.1865039976    0.5326406770   -1.2233902173
C       -0.2962858795   -1.6373267611   -0.4156459344
C        3.6975909784    1.7464970042    2.4385523923
C        3.3982631718    0.8559611149    0.1160370810
N        0.6595581958   -0.9197631946    0.4234904522
N       -0.5950908598   -0.7731857850   -1.5570607582
N        2.8176066450    1.2002428606    1.4109755388
O        0.9821644344    1.4307930642    2.7300846279
H       -0.3979157766    2.2685171660   -0.0492249532
H       -2.2027290230    0.3977773544   -0.8384433012
H       -1.2343540198    1.1645964934   -2.1161660823
H        0.1428505852   -2.5768458456   -0.7654111112
H       -1.2091455687   -1.8552242247    0.1493357924
H        4.6842319554    1.2765040048    2.3791052029
H        3.3066293872    1.5521410074    3.4424537487
H        3.8078825710    2.8269676437    2.3046357899
H        4.2096684995    1.5484042437   -0.1289774511
H        2.6638188521    0.9312709549   -0.6920655408
H        3.7954455841   -0.1633980917    0.1373909596
H        1.2881542514   -1.4486341994    1.0196926086
H       -1.1366144323   -1.2635672125   -2.2609101073
24   

C       -0.2041815427    1.2081079627   -0.2400268235
C        0.5522816298    0.4229041400    0.5941232054
C        1.4628698054    0.9444369718    1.6808367798
C       -1.0529763343    0.6019914161   -1.3167807866
C       -0.4133190462   -1.6233835325   -0.4206500764
C        3.6836228069    1.7564044922    2.4460517274
C        3.3399073324    1.0800595441    0.0567838003
N        0.5570680834   -0.9771255633    0.4585257479
N       -0.5714609953   -0.7613446755   -1.5922875561
N        2.7981037244    1.2529520410    1.4013460781
O        1.0346027847    1.0868141815    2.8307007552
H       -0.1553030269    2.2853433965   -0.1440059571
H       -2.0953542320    0.5714469829   -0.9824308218
H       -0.9969200381    1.2132820743   -2.2232966483
H       -0.0432944431   -2.6060271384   -0.7294973347
H       -1.3711326993   -1.7460579527    0.0966243412
H        4.2644631626    0.9346406554    2.8758099159
H        3.1206905367    2.2470135334    3.2465278846
H        4.3701293307    2.5011329475    2.0313015750
H        3.2136368006    1.9990215229   -0.5238333865
H        2.8529654352    0.2557394472   -0.4735718520
H        4.4059224405    0.8374051510    0.1078627198
H        1.0676298132   -1.5433980053    1.1293375142
H       -1.1197905364   -1.2167070908   -2.3141609812
24   

C       -0.0354574465    1.1983720174   -0.2739098907
C        0.6058837515    0.3650198598    0.6095581290
C        1.5434420256    0.8131615410    1.7034987796
C       -0.9258563990    0.6504809351   -1.3483111733
C       -0.5494300352   -1.5987856522   -0.3630163385
C        3.7002604348    1.7703091342    2.4647816902
C        3.3266237916    1.2671492572    0.0350057236
N        0.4682066654   -1.0294209141    0.5154659498
N       -0.5939894526   -0.7665711321   -1.5660893679
N        2.8196290496    1.2970003807    1.4030600751
O        1.1720612201    0.7613147259    2.8814887559
H        0.1302954890    2.2664639818   -0.2143790823
H       -1.9711152142    0.7467494516   -1.0359141844
H       -0.7865528889    1.2185532789   -2.2737131176
H       -0.2811527724   -2.6254221811   -0.6312253344
H       -1.5238989857   -1.6008050351    0.1374472145
H        4.2941614761    0.9408307991    2.8606993218
H        3.1252343692    2.2180940348    3.2818938740
H        4.3749852385    2.5421583352    2.0814277316
H        3.1088715079    2.2118728082   -0.4723759392
H        2.8857722580    0.4445688791   -0.5376864888
H        4.4093733588    1.1067846434    0.0372485864
H        0.8680785427   -1.6114918040    1.2461618681
H       -1.1767547464   -1.1859591535   -2.2827246147
24   

C        0.1718521057    1.0864179532   -0.3119617717
C        0.7567213743    0.2566022718    0.6147046717
C        1.7321722618    0.6823427529    1.6804015370
C       -0.7880667421    0.5538093049   -1.3331879791
C       -0.5967622610   -1.6497939024   -0.1996620248
C        3.8063963523    1.8094405729    2.4261353930
C        3.3856368674    1.4334236310   -0.0175244503
N        0.4925131938   -1.1199295279    0.6146648935
N       -0.5984630730   -0.8999296057   -1.4566100850
N        2.9275394465    1.3341582025    1.3640120033
O        1.4479138240    0.4733786721    2.8664909325
H        0.4221319294    2.1394317296   -0.3200609347
H       -1.8126785311    0.7714222233   -1.0133204646
H       -0.6152335162    1.0414033366   -2.2979575808
H       -0.4310283642   -2.7126846791   -0.4013369187
H       -1.5528853442   -1.5271815851    0.3207867950
H        4.4618875283    1.0012067262    2.7647866704
H        3.2243467996    2.1771544129    3.2776495438
H        4.4205624313    2.6414016587    2.0674935040
H        3.0764824067    2.3876913334   -0.4546023322
H        2.9908419018    0.6145521164   -0.6279820790
H        4.4771325014    1.3612960338   -0.0587952211
H        0.8305572634   -1.6689785055    1.4012407289
H       -1.2367824695   -1.3104329714   -2.1296663725
24   

C        0.2709356020    1.0031884365   -0.4136427557
C        0.7942941743    0.1715959400    0.5497278587
C        1.7845463329    0.5591953379    1.6139188715
C       -0.7409908332    0.5069440608   -1.4031755435
C       -0.7528276404   -1.6344477934   -0.1408087139
C        3.7738014611    1.7780274508    2.4337251257
C        3.3639118049    1.5650444411   -0.0281723690
N        0.3964612129   -1.1677687956    0.6274483651
N       -0.7000078436   -0.9628720365   -1.4399137572
N        2.9152304552    1.3362821093    1.3407331080
O        1.5726753823    0.1933326314    2.7781529287
H        0.5930932211    2.0345759195   -0.4690820952
H       -1.7374191443    0.8451848661   -1.0995393881
H       -0.5242334663    0.9157746197   -2.3952728037
H       -0.6956063827   -2.7185372730   -0.2798470583
H       -1.6834791121   -1.3868362831    0.3813335952
H        4.4658135332    0.9794360775    2.7184163188
H        3.1749523455    2.0595041560    3.3062951306
H        4.3489837328    2.6597409094    2.1341296222
H        2.9892183195    2.5239615822   -0.3987363821
H        3.0281302831    0.7635600411   -0.6944178636
H        4.4578192974    1.5736818761   -0.0698075419
H        0.6848971968   -1.6882853856    1.4535788775
H       -1.3840571587   -1.3475731387   -2.0825159289
24   

C        0.3781162479    0.9035056733   -0.4702771929
C        0.8691989193    0.0916738350    0.5288933241
C        1.8772197939    0.4674955574    1.5808858598
C       -0.6845129761    0.4240245252   -1.4148306350
C       -0.8409320668   -1.6196292976   -0.0102620719
C        3.7892041058    1.7613717979    2.4586398915
C        3.3737840982    1.6816432338   -0.0053534338
N        0.3620997606   -1.1978726697    0.6982819981
N       -0.7656609985   -1.0427183116   -1.3523372788
N        2.9396588810    1.3492586932    1.3466555063
O        1.7663912967   -0.0343766185    2.7085851454
H        0.7457327311    1.9136851572   -0.5849666193
H       -1.6456839798    0.8632757669   -1.1273667282
H       -0.4491933519    0.7451455148   -2.4345823907
H       -0.8747786274   -2.7116358797   -0.0752962723
H       -1.7345000264   -1.2613551497    0.5124162125
H        4.5090119009    0.9725711671    2.6984771508
H        3.1838474018    1.9743941660    3.3460455055
H        4.3332220777    2.6768341299    2.2056512154
H        2.9473746552    2.6385595755   -0.3211402735
H        3.0855646633    0.9006160441   -0.7164823966
H        4.4654792526    1.7547881145   -0.0431248328
H        0.6461225320   -1.6896797539    1.5445962765
H       -1.4924894739   -1.4121971216   -1.9556265788
24   

C        0.4524460327    0.8170836432   -0.5645935491
C        0.9112457098    0.0260376992    0.4688982998
C        1.9394109239    0.3808451097    1.5114207950
C       -0.6537272115    0.3606029527   -1.4709905702
C       -0.9460531795   -1.5709189911    0.0607577117
C        3.7750841938    1.7214979647    2.4724914900
C        3.3469899932    1.8100409136    0.0170511049
N        0.3015050358   -1.2019926460    0.7185738881
N       -0.8505166010   -1.0875447385   -1.3154867582
N        2.9320275642    1.3559015947    1.3386869525
O        1.9386489514   -0.2541581726    2.5762169747
H        0.8615817981    1.8008163916   -0.7392973554
H       -1.5747630138    0.8920465703   -1.2090582582
H       -0.4037934873    0.5958185773   -2.5105244490
H       -1.0673062130   -2.6586220155    0.0675060525
H       -1.7970796905   -1.1090923287    0.5730567266
H        4.5372650101    0.9543143137    2.6414351742
H        3.1710200639    1.8303884074    3.3794644711
H        4.2684040951    2.6813615497    2.2898939128
H        2.8498564913    2.7502722887   -0.2401683765
H        3.1287864117    1.0548910763   -0.7450526133
H        4.4295408586    1.9723585557   -0.0033952304
H        0.6015025857   -1.6923756747    1.5611766139
H       -1.6142893814   -1.4350400732   -1.8851918613
24   

C        0.5460693943    0.7132250019   -0.6605720230
C        0.9538934336   -0.0206939428    0.4376296436
C        2.0205366897    0.3049394845    1.4564972443
C       -0.6082569278    0.2741625857   -1.5152629097
C       -1.0450404287   -1.4821247029    0.1775227641
C        3.8093700039    1.6464559748    2.5001034190
C        3.2936516082    1.9806157821    0.0885632774
N        0.2337707767   -1.1556070116    0.7952473967
N       -0.9227779111   -1.1330574097   -1.2354545383
N        2.9490983476    1.3534786991    1.3567984816
O        2.1246653086   -0.4397804835    2.4431407386
H        1.0227113904    1.6357845274   -0.9474155725
H       -1.4782323767    0.9013470377   -1.2937753780
H       -0.3550745974    0.3977689832   -2.5731413923
H       -1.2518921894   -2.5516786391    0.2829743450
H       -1.8518746456   -0.9099067267    0.6481845970
H        4.6158754381    0.9093299883    2.5663518359
H        3.2308495228    1.6269133577    3.4297651316
H        4.2458596578    2.6459595858    2.4079477213
H        2.6563413841    2.8508307554   -0.0961292196
H        3.2066579564    1.2645262863   -0.7349934336
H        4.3359909673    2.3153983852    0.1009658171
H        0.5579509544   -1.6569855657    1.6229271770
H       -1.7184889754   -1.4636933168   -1.7703857046
24   

C        0.8340797678    0.5608554395   -0.6735779876
C        0.9097584525    0.2860574384    0.6754731253
C        2.1048905462    0.4530629003    1.5801136107
C       -0.3623997246    0.1543734491   -1.4786853512
C       -1.3282877576   -0.8135803427    0.5883088927
C        4.3245523846    1.3317869020    2.2073754399
C        2.9858713865    2.5094718149    0.4604715156
N       -0.1279671115   -0.3936210564    1.3070508014
N       -0.9747421103   -1.0054957596   -0.8179324841
N        3.1429489965    1.3669230009    1.3516915810
O        2.1582302384   -0.2372509251    2.6070543357
H        1.6863437749    0.9564214472   -1.2061015778
H       -1.0758738101    0.9828518274   -1.5332909750
H       -0.0518250767   -0.1116601811   -2.4944718219
H       -1.7005530190   -1.7547595363    1.0052877369
H       -2.1086278445   -0.0513822695    0.6838199156
H        5.1615272610    1.8481122411    1.7268352206
H        4.6372757395    0.2975773607    2.3864650251
H        4.1120994839    1.8116697949    3.1678264882
H        1.9330413964    2.7951577135    0.3692998578
H        3.3950083819    2.2842474304   -0.5290948319
H        3.5138683802    3.3788117234    0.8656511195
H        0.1234537098   -0.8488009452    2.1853862123
H       -1.7496234244   -1.3904870503   -1.3473219878
24   

C        0.8941971354    0.4474723794   -0.7230967791
C        0.9511232026    0.2225589343    0.6341303995
C        2.1611559364    0.3669378195    1.5172742123
C       -0.3302660112    0.0975970172   -1.5122332900
C       -1.3786375254   -0.6610639237    0.6060483831
C        4.3364311706    1.3479275667    2.1553225577
C        2.8678801402    2.5431844786    0.5204459599
N       -0.1422757083   -0.3260517206    1.3089877850
N       -1.0474280425   -0.9603938485   -0.7873880603
N        3.1256762411    1.3665511369    1.3418788293
O        2.3074322175   -0.4429251178    2.4420687848
H        1.7789592084    0.7653499360   -1.2574267711
H       -0.9670646777    0.9807708592   -1.6252380410
H       -0.0400545259   -0.2576430460   -2.5065610944
H       -1.8426097572   -1.5376628617    1.0692165018
H       -2.0797374730    0.1783576367    0.6591012036
H        5.1244627426    1.9420795658    1.6820284476
H        4.7147623181    0.3253343413    2.2581741220
H        4.1310633664    1.7542160181    3.1505663730
H        1.7947558508    2.7478277150    0.4498371890
H        3.2805274769    2.4079029249   -0.4838891086
H        3.3289644328    3.4268287984    0.9734331943
H        0.0849442544   -0.8130112782    2.1758664936
H       -1.8541069675   -1.3035024971   -1.2977882477
24   

C        0.9802565506    0.3157926743   -0.7808139547
C        1.0312674614    0.1366857259    0.5817427391
C        2.2574305897    0.2582687243    1.4441232181
C       -0.2741096908    0.0310253363   -1.5488783388
C       -1.3721574344   -0.5112096245    0.6138594763
C        4.3760340692    1.3356384872    2.1256033177
C        2.7938078391    2.5390911987    0.6003658768
N       -0.1018706154   -0.2755722777    1.2970648927
N       -1.0848260803   -0.9113614080   -0.7642174317
N        3.1442259188    1.3353229788    1.3447923832
O        2.4973590552   -0.6518936649    2.2471732873
H        1.8847154209    0.5585159182   -1.3230687905
H       -0.8276020183    0.9604309288   -1.7164380202
H       -0.0209788578   -0.4079798023   -2.5196178760
H       -1.9223796974   -1.3105620287    1.1202991561
H       -1.9808810643    0.3988743507    0.6279591374
H        5.1208472031    1.9904860452    1.6625566906
H        4.8072686113    0.3299183953    2.1685858512
H        4.1786319691    1.6828034593    3.1445075775
H        1.7082398771    2.6715456442    0.5500475958
H        3.1998021113    2.4928859119   -0.4146707909
H        3.1980353339    3.4236132349    1.1030889749
H        0.0876707830   -0.7790554461    2.1623653857
H       -1.9245554031   -1.2025050960   -1.2531992486
24   

C        1.0330242672    0.1723615495   -0.8624892720
C        1.0902957799    0.0597069192    0.5055315142
C        2.3387490393    0.1581812290    1.3406767982
C       -0.2523995418   -0.0462886954   -1.6003479223
C       -1.3640473695   -0.3380702245    0.6054454912
C        4.3849890600    1.3260420247    2.0984344610
C        2.6928508604    2.5330295974    0.6948796079
N       -0.0654517282   -0.2028933676    1.2626962066
N       -1.1412938586   -0.8494193296   -0.7475214091
N        3.1383491086    1.3045830035    1.3420868391
O        2.6758889284   -0.8240829976    2.0115199263
H        1.9470000395    0.3230580669   -1.4224933885
H       -0.7170880424    0.9177210157   -1.8305876718
H       -0.0538699847   -0.5737834630   -2.5392152613
H       -1.9903179601   -1.0409062530    1.1639963814
H       -1.8703106808    0.6321902461    0.5690246208
H        5.0794540215    2.0535816921    1.6667455304
H        4.8763680011    0.3479377354    2.0670379326
H        4.1899676327    1.5933442687    3.1415729775
H        1.6002601765    2.5869844411    0.6523539549
H        3.0951982827    2.5965123739   -0.3206836893
H        3.0312791385    3.4033854947    1.2661186217
H        0.0811915509   -0.6939181214    2.1421522315
H       -2.0132167213   -1.0853326740   -1.2092160753
24   

C        1.1137598928    0.0003258847   -0.9282141537
C        1.2061771978   -0.0042587318    0.4414424750
C        2.4897199671    0.0856591881    1.2286670509
C       -0.2071060431   -0.1773790467   -1.6125485947
C       -1.2684007257   -0.1807606494    0.6379097830
C        4.4369038161    1.3497720950    2.0948846216
C        2.6192291214    2.5373458537    0.8394509281
N        0.0569163519   -0.1177305528    1.2513642886
N       -1.1345349585   -0.8220515574   -0.6703629662
N        3.1780833663    1.2948445725    1.3604634960
O        2.9405758024   -0.9359865549    1.7568533046
H        2.0186803848    0.0429106177   -1.5208360713
H       -0.5981002904    0.7975173651   -1.9209274047
H       -0.0803809887   -0.8017835971   -2.5031421246
H       -1.9405960081   -0.7714750813    1.2682703708
H       -1.6822505076    0.8273139678    0.5300894148
H        5.0686910179    2.1541193709    1.7052801872
H        4.9964498741    0.4149657176    1.9855488075
H        4.2464579682    1.5277964738    3.1577128429
H        1.5266810477    2.4961381007    0.7872696179
H        3.0166341032    2.7438088268   -0.1589212960
H        2.8729565024    3.3705205247    1.5024882812
H        0.1820741927   -0.5581663949    2.1594263922
H       -2.0376485301   -1.0175444494   -1.0890373038
24   

C        1.1200881350   -0.1967153426   -1.0063056876
C        1.2612317145   -0.0472146695    0.3506390832
C        2.5810579282    0.0450680418    1.0808868911
C       -0.2320951034   -0.3624549547   -1.6296480175
C       -1.2123769539   -0.0389233133    0.6343212811
C        4.4339862997    1.3722995707    2.0672025927
C        2.4901542654    2.5251071100    0.9743592107
N        0.1335388426   -0.0175343011    1.2036228181
N       -1.1694111387   -0.8285148857   -0.5961514737
N        3.1520807915    1.2875346784    1.3742423272
O        3.1457933313   -0.9871518958    1.4546248944
H        2.0050762362   -0.2777218460   -1.6246825128
H       -0.5683159596    0.5952737713   -2.0399473402
H       -0.1762598892   -1.0914917278   -2.4447482472
H       -1.9073810586   -0.5009248073    1.3425616972
H       -1.5497714023    0.9815871014    0.4246327270
H        5.0185539281    2.2160379275    1.6877683989
H        5.0330625726    0.4695189453    1.9105588842
H        4.2716051554    1.5047348406    3.1412863653
H        1.9202116448    2.3959342984    0.0493548202
H        3.2278880060    3.3113883490    0.7870644945
H        1.8114028953    2.8599196107    1.7650908636
H        0.2549747888   -0.3708189292    2.1486780907
H       -2.0978587297   -0.9997872112   -0.9673742086
24   

C        1.1355523757   -0.3676208829   -1.0447681977
C        1.3283708612   -0.0800351267    0.2831999303
C        2.6825793926    0.0264942361    0.9474206146
C       -0.2403026535   -0.5409941129   -1.6112469661
C       -1.1359621659    0.0545879556    0.6307136323
C        4.4302354726    1.3679678567    2.1070920254
C        2.3920573834    2.4831318869    1.1705669415
N        0.2256671295    0.0643175537    1.1612096890
N       -1.1644923266   -0.8574151324   -0.5115356687
N        3.1526707839    1.2613935599    1.4090108804
O        3.3604047149   -0.9866916971    1.1418565748
H        1.9973521067   -0.5472488970   -1.6753327895
H       -0.5506167746    0.3827164032   -2.1105410475
H       -0.2375050231   -1.3514203240   -2.3475339223
H       -1.8315078698   -0.2971818931    1.3991596078
H       -1.4296221224    1.0643567894    0.3249636357
H        5.2013260910    1.7412625874    1.4263094185
H        4.7559034814    0.4027216406    2.5074465332
H        4.3375429696    2.0539046995    2.9548711541
H        1.8595031733    2.4393175017    0.2152036081
H        3.0637807966    3.3460467436    1.1239452274
H        1.6682379494    2.6417854572    1.9760107717
H        0.3582621138   -0.1949932481    2.1342141106
H       -2.1101044856   -1.0206528057   -0.8406958412
24   

C        1.3039792255   -0.4806311681   -1.0210500839
C        1.5110209859   -0.0723983829    0.2735759628
C        2.8831141389    0.1112131348    0.8796423121
C       -0.0723987228   -0.7397634268   -1.5517212348
C       -0.9562210755    0.0212101911    0.6402875197
C        4.5448589286    1.4410297777    2.1508720018
C        2.4016641128    2.4997963335    1.4020079967
N        0.4105884925    0.1039490798    1.1504319728
N       -0.9743418462   -0.9869534511   -0.4170014865
N        3.2459888261    1.3135424362    1.4991075554
O        3.6976910643   -0.8163375132    0.8703464555
H        2.1625178584   -0.6913622861   -1.6469090552
H       -0.4144543999    0.1294994943   -2.1229505764
H       -0.0545031385   -1.6090572326   -2.2172228137
H       -1.6360087721   -0.2770543288    1.4446126166
H       -1.2746808435    0.9942162136    0.2513735227
H        5.3111454220    1.7092962233    1.4170943218
H        4.8307364577    0.5034734218    2.6389366123
H        4.5070798274    2.2128828412    2.9259787431
H        1.7787818398    2.4744348346    0.5022582849
H        3.0212270445    3.3995085260    1.3331405797
H        1.7550080419    2.5798329904    2.2810295392
H        0.5587235432   -0.0581073293    2.1416468059
H       -1.9189786829   -1.1996657910   -0.7196143993
24   

C       -0.1382094946    0.5969688223    0.7072922045
C        1.2057588728    0.4101298231    0.4873261585
C        2.2644390786    1.1339570470    1.2817625756
C       -1.1797293070   -0.0557075276   -0.1481594201
C        0.6628941499   -1.2104041969   -1.3373387989
C        4.4717247066    1.2737631002    2.3872087107
C        3.5682720821   -0.9553258104    1.6993073195
N        1.6310827222   -0.4164764492   -0.5841634116
N       -0.5670013174   -0.4291940936   -1.4309111394
N        3.4375060941    0.4981433993    1.7110892392
O        2.1146075007    2.3249142941    1.5702844548
H       -0.4483094614    1.2948877597    1.4758174151
H       -1.5650023187   -0.9460788348    0.3595266700
H       -2.0105260443    0.6381484191   -0.3131681911
H        1.0480473589   -1.4125023688   -2.3417343566
H        0.4780322493   -2.1636996957   -0.8308745661
H        4.1735575906    1.4830537312    3.4193186986
H        4.6432058913    2.2211410565    1.8654017078
H        5.4191444424    0.7257423925    2.3948254255
H        4.0712803186   -1.2948782258    2.6102276174
H        4.1486058536   -1.2800334732    0.8306624426
H        2.5897892392   -1.4452932417    1.6808838426
H        2.5205576189   -0.2076598028   -1.0261119586
H       -1.2370179566   -0.8542557601   -2.0630073883
24   

C       -0.2054351711    0.6197158923    0.5688604216
C        1.1394761991    0.3586140981    0.4373379877
C        2.1743083608    1.0792362928    1.2626124855
C       -1.2347018488   -0.0325800130   -0.3013865560
C        0.5983066741   -1.3618549029   -1.2986113682
C        4.4180140412    1.3398919764    2.2627257353
C        3.6491923086   -0.9230253922    1.5405603086
N        1.5679688609   -0.5630823864   -0.5527018493
N       -0.5763747405   -0.5247795958   -1.5192123702
N        3.4177237928    0.5168365604    1.5904253748
O        1.9348004482    2.2105146512    1.6951487951
H       -0.5236245966    1.3734476042    1.2794851792
H       -1.6974505957   -0.8641812496    0.2401526112
H       -2.0141542562    0.6921040646   -0.5586311881
H        1.0239445506   -1.6607528376   -2.2616691822
H        0.3325108790   -2.2619365038   -0.7340807923
H        4.1460700830    1.4842129243    3.3131066186
H        4.4967919583    2.3180219562    1.7765141215
H        5.4034253823    0.8662416726    2.2117147412
H        4.2490221517   -1.2379176851    2.4003490254
H        4.1773046297   -1.1956774462    0.6221988919
H        2.7079622358   -1.4786990735    1.5979487163
H        2.4871258366   -0.4310816770   -0.9615916352
H       -1.2349148896   -0.9593768584   -2.1568668563
24   

C       -0.2089195849    0.7005533095    0.5533708863
C        1.1217869391    0.3453356131    0.5089160721
C        2.1446417033    1.0133686579    1.3920490474
C       -1.2335160848    0.0949792548   -0.3553062567
C        0.5418487295   -1.4089176407   -1.1844228110
C        4.4109705474    1.3422040260    2.3139582709
C        3.7578366616   -0.9062434371    1.4626402650
N        1.5279672549   -0.6479666741   -0.4211244648
N       -0.5468602581   -0.4953195737   -1.5117407650
N        3.4377446340    0.5091577679    1.6133193297
O        1.8489117084    2.0521185234    1.9901319308
H       -0.5182603553    1.4914788837    1.2266024837
H       -1.7918044466   -0.6757556305    0.1862413886
H       -1.9367327194    0.8665432068   -0.6855488951
H        0.9951106258   -1.7877579946   -2.1058417709
H        0.1747684989   -2.2561117951   -0.5953166639
H        4.1782402998    1.3801074669    3.3828684427
H        4.4013478766    2.3602963451    1.9104003066
H        5.4228365019    0.9460435077    2.1829332298
H        4.4498431538   -1.2221733382    2.2497869329
H        4.2224013364   -1.0951589888    0.4905055737
H        2.8630907318   -1.5270760225    1.5717658750
H        2.4699662452   -0.5930911307   -0.7928285502
H       -1.2003670429   -0.9080868114   -2.1688052121
24   

C       -0.1970324110    0.7507167591    0.4813652838
C        1.1042245176    0.2970928691    0.5409100342
C        2.1042574706    0.9249758844    1.4829106116
C       -1.2104917125    0.1804651775   -0.4623019582
C        0.4715607650   -1.5172981526   -1.0725623556
C        4.3609870153    1.3474616807    2.3894702797
C        3.8834709457   -0.8492034882    1.3236798537
N        1.4769265405   -0.7813416147   -0.3107451806
N       -0.5091420792   -0.5412994053   -1.5316514133
N        3.4394912809    0.5056272216    1.6301460047
O        1.7487609024    1.8587199194    2.2082778835
H       -0.4903891315    1.5897609354    1.1014063703
H       -1.8716836468   -0.5015438404    0.0824240093
H       -1.8170082483    0.9879995839   -0.8852623238
H        0.9388756397   -2.0051417253   -1.9337018943
H       -0.0010081528   -2.2805211884   -0.4450310142
H        4.1632808407    1.2550590984    3.4620965716
H        4.2492511638    2.3965099386    2.0952358376
H        5.3986852462    1.0610690105    2.1916124406
H        4.6861948851   -1.1471928708    2.0057243222
H        4.2587080524   -0.9104111133    0.2980137014
H        3.0741697342   -1.5705706858    1.4728728403
H        2.4314862715   -0.8105842473   -0.6494984320
H       -1.1566516107   -0.9448861773   -2.2002901415
