56

C      1.26385    2.47811    2.03044
C      1.30913    1.90379    0.73834
C      0.62147    1.86060    3.10842
C      0.09416    0.03870    1.57710
C      0.71446    0.66624    0.49592
C     -0.57501   -1.22053    1.60379
C      0.02791    0.61763    2.86189
C     -1.04750   -1.39548    2.88480
C     -0.51544   -2.06517    0.36689
C      0.35842    0.99438   -1.99151
C     -0.00892   -1.05781   -3.36951
C      0.63285   -0.02927   -0.85806
C     -0.41550    0.39655   -3.18140
C     -0.47476   -1.11096   -0.84509
C      1.01663   -5.35740   -3.25000
C     -2.83750   -4.59117    3.06467
C     -0.42144    3.47982   -6.00098
C     -1.79636   -2.52586    3.52002
C     -0.18205    1.16303   -4.48987
C      0.32811   -3.99769   -3.43047
C      0.39987   -3.19207   -2.13364
N     -0.68269   -0.28159    3.64644
N     -0.41766   -1.91497   -2.17762
O     -2.13557   -3.47404    2.52351
S     -0.74333    2.89676   -4.30275
H      1.73829    3.44231    2.18781
H      1.80525    2.45174   -0.05802
H      0.59236    2.33687    4.08445
H      0.39636   -2.67091    0.40198
H     -1.36762   -2.74681    0.29997
H     -0.20504    1.83592   -1.58478
H      1.30886    1.40287   -2.34791
H     -0.46619   -1.50517   -4.25286
H      1.07578   -1.14618   -3.46242
H      1.59031   -0.53492   -1.04930
H     -1.49323    0.43156   -2.97571
H     -1.44022   -0.59956   -0.88748
H      2.07086   -5.23600   -2.98120
H      0.53277   -5.95069   -2.46777
H      0.97423   -5.93010   -4.17950
H     -3.05520   -5.26453    2.23375
H     -3.78103   -4.27807    3.53222
H     -2.22716   -5.12065    3.80904
H     -0.72022    4.52958   -6.03556
H     -1.01443    2.92038   -6.72925
H      0.64120    3.40799   -6.24662
H     -1.17807   -2.99784    4.30261
H     -2.70714   -2.14669    4.01406
H     -0.74261    0.69539   -5.30769
H      0.88344    1.14816   -4.75074
H     -0.72299   -4.15357   -3.70826
H      0.80261   -3.45875   -4.25480
H      0.00852   -3.79109   -1.31376
H      1.42458   -2.90194   -1.89074
H     -0.92726   -0.14300    4.61777
H     -1.38357   -2.20879   -2.34787
