49

C      4.01648    7.04699   -4.89528
C      2.70968    6.87106   -4.42592
C      4.50294    6.16075   -5.85924
C     -0.19188    3.28395   -1.85201
C      2.00898    2.44864   -2.33215
C     -0.41073    3.46784   -3.21969
C      1.79104    2.63436   -3.69681
C      1.90796    5.83549   -4.90350
C      3.71426    5.11262   -6.34072
C      1.03574    2.80077   -1.38171
C      0.58396    3.17457   -4.15688
C      2.39451    4.92513   -5.87232
C      1.73619    5.31662    0.11356
C      0.69588    2.55660    2.50696
C      1.62514    3.70782    2.91080
C      0.21121    2.71525    1.05981
C      2.79218    3.86797    1.92561
C      1.39984    2.77132    0.08973
C      2.35780    3.95721    0.44906
C      2.18632    2.90123   -7.25176
C      0.38468    3.51726   -5.62732
N      1.60473    3.87249   -6.34027
O      1.17858    6.03369    0.91713
O      1.84664    5.73330   -1.17913
H      4.63807    7.85321   -4.51650
H      2.30522    7.53815   -3.66913
H      5.51422    6.27508   -6.24264
H     -0.96837    3.57205   -1.15086
H      2.96595    2.05359   -1.99499
H     -1.35356    3.89752   -3.55357
H      2.58447    2.40611   -4.40216
H      0.90534    5.73756   -4.50666
H      4.13705    4.44190   -7.07951
H      1.22434    1.59778    2.60668
H     -0.16394    2.51255    3.18495
H      1.05720    4.64087    2.94532
H      2.02611    3.53307    3.91610
H     -0.44310    1.88166    0.78028
H     -0.38429    3.63207    0.98383
H      3.38517    4.75059    2.18564
H      3.45882    2.99947    2.01286
H      1.99983    1.86696    0.26083
H      3.25229    3.85139   -0.17722
H      1.42892    2.16415   -7.52264
H      3.04451    2.36338   -6.81799
H      2.52418    3.38293   -8.17664
H     -0.06593    2.66845   -6.14945
H     -0.34413    4.33493   -5.70026
H      2.21766    5.03194   -1.74540
