27

C      0.66637    2.24978   -1.78177
C      2.37614   -1.15493    0.30803
C      1.11017   -0.71968    0.70291
C      3.38915   -1.35333    1.25049
C      1.84197   -0.71725    3.01669
C      1.17354    2.37185   -0.45965
C      0.84184   -0.47823    2.06087
C      3.10423   -1.13528    2.60072
C      0.49185    2.11486    0.70341
C      2.57008    2.63477    1.13959
C     -0.46786    0.03371    2.52312
C      3.74893    2.79481    2.02875
N      0.22018    2.12253   -2.85163
N      2.49527    2.71576   -0.15238
N     -1.21410    0.97247    2.04961
N     -0.80975    1.72212    0.95446
O      1.36971    2.30214    1.73750
Cl     4.36754   -1.37457    3.79857
H      2.58258   -1.33079   -0.74369
H      0.33132   -0.57434   -0.03813
H      4.37968   -1.67569    0.94597
H      1.64654   -0.54160    4.07046
H     -0.89429   -0.43930    3.40765
H      3.56137    3.54694    2.80089
H      3.97483    1.84640    2.52770
H      4.60643    3.09787    1.42750
H     -1.52355    2.39818    0.70956
