13

C      1.88492   -0.71268   -1.07275
C      0.73350   -0.73655   -0.30061
C      1.35201   -2.78986   -0.85889
C      1.39063   -4.23280   -0.98436
N      2.25966   -1.98316   -1.41339
N      0.59906   -5.13557   -0.51550
N      0.40798   -2.06211   -0.17281
O     -0.46556   -4.57085    0.23741
H      2.45122    0.15249   -1.39285
H      0.14517    0.05052    0.14970
H      2.21988   -4.62410   -1.56800
H     -0.37287   -2.47747    0.32053
H     -0.96266   -5.35608    0.51711
