41

C      0.27761    3.58839   -3.74299
C      1.29590    3.16658   -2.87769
C     -0.38749    2.64597   -4.53393
C      1.63608    1.81409   -2.79461
C     -0.04403    1.29228   -4.44784
C      0.96093    0.86048   -3.57307
C      1.49193   -1.02706   -1.96623
C     -1.50839    0.60537   -1.35061
C     -0.34723   -0.77056    1.28830
C     -0.97132   -0.81975   -1.53933
C      0.71541   -1.25528    0.29938
C     -1.89610    2.59723    0.14536
C     -1.85798    1.04840    0.07773
C     -0.87955    0.66437    1.19985
C      1.29686   -0.61169   -3.42840
N     -0.50717    3.09700    0.20287
N      0.41329   -0.99460   -1.11280
O      2.61536   -1.33022   -1.56183
O      1.61590    1.66591    0.43729
O      0.49700    2.53982    2.54343
S      0.39759    2.01418    1.18058
H      0.01145    4.64053   -3.80365
H      1.82811    3.89021   -2.26500
H     -1.17529    2.96211   -5.21306
H      2.40123    1.49587   -2.09329
H     -0.57739    0.56353   -5.05510
H     -0.77264    1.28420   -1.78110
H     -2.41387    0.71634   -1.95940
H     -1.22993   -1.42072    1.25653
H      0.08304   -0.91160    2.28552
H     -1.60003   -1.54755   -1.01283
H     -1.04710   -1.07588   -2.59606
H      1.67154   -0.78072    0.51175
H      0.85412   -2.33301    0.45832
H     -2.38267    3.03577   -0.72866
H     -2.42666    2.93953    1.03924
H     -2.83871    0.64067    0.35055
H     -1.38466    0.87650    2.14719
H      0.53932   -1.22366   -3.92777
H      2.25392   -0.83232   -3.90746
H     -0.06893    3.09475   -0.72040
