13

C      1.87876   -0.61428   -0.77415
C      0.57569   -0.75340   -0.33132
C      1.42643   -2.71478   -0.96322
C      1.40435   -4.15004   -1.19507
N      2.39402   -1.82341   -1.16039
N      2.30431   -4.95190   -1.65090
N      0.29728   -2.09366   -0.45563
O      3.50149   -4.31842   -1.97311
H      2.46509    0.29402   -0.83215
H     -0.14685   -0.04350    0.04568
H      0.47500   -4.66241   -0.94822
H     -0.57770   -2.54263   -0.21760
H      4.04682   -5.05720   -2.29157
