29

C      3.01552   -2.79921    2.74030
C     -5.17821    0.44419    1.87805
C      1.78978   -3.26336    3.27574
C     -2.79247    0.18931    1.46005
C     -3.33992    1.40965    1.09658
C      0.53887   -2.76790    2.96886
C      0.36577   -4.38334    4.42057
C     -1.42200   -0.31314    1.36100
C     -2.63300    2.60882    0.52317
C     -0.39528   -5.28501    5.32280
C     -0.46924    0.22801    0.31947
N      3.97687   -2.35256    2.24872
N     -4.69514    1.53033    1.33831
N      1.63624   -4.30154    4.20714
N     -1.11474   -1.27802    2.17230
N      0.14212   -1.80822    2.08287
O     -0.37907   -3.45964    3.67940
S     -4.03573   -0.82950    2.15593
H     -6.22164    0.32750    2.15326
H     -2.60732    2.57610   -0.57261
H     -3.18464    3.50711    0.80862
H     -1.60789    2.70098    0.88702
H     -0.95443   -4.70974    6.06782
H     -1.11218   -5.88988    4.75830
H      0.30838   -5.94401    5.83222
H      0.32758    0.83484    0.76850
H      0.00411   -0.60174   -0.21919
H     -0.98185    0.84176   -0.41727
H      0.89746   -1.30104    1.62656
