31

C     -8.32722    2.68349    0.52549
C     -1.25744   -1.00192    0.81722
C     -0.05524   -0.49315    1.29986
C     -1.22859    1.03076    2.82638
C     -4.59799   -0.01286    1.83884
C     -8.38741    3.20100    1.84193
C     -2.45008    0.52031    2.35154
C     -3.83693    0.81950    2.65622
C     -2.44317   -0.48789    1.35275
C     -0.05803    0.50995    2.29125
C     -7.45234    2.97496    2.83136
C     -9.06459    4.22426    3.59765
C     -4.25988    1.76567    3.67858
C     -9.74333    5.02211    4.65088
N     -8.19046    2.20424   -0.53163
N     -9.40756    4.00529    2.37238
N     -5.37287    2.41124    3.81058
N     -3.76570   -0.79346    1.07175
N     -6.32722    2.19689    2.83957
O     -7.85894    3.60980    3.95216
Br     1.63040    1.18348    2.90881
H     -1.26225   -1.77104    0.04963
H      0.88771   -0.86385    0.91283
H     -1.19329    1.81175    3.57866
H     -5.66807   -0.16109    1.79368
H     -3.53470    1.99754    4.45615
H     -9.97722    4.40181    5.52203
H     -9.10625    5.84655    4.98726
H    -10.66797    5.42826    4.23969
H     -4.08013   -1.46703    0.38664
H     -6.00958    1.92146    1.90779
