32

C      2.85037    0.67982   -0.71261
C      3.36498   -0.23336   -1.62867
C      1.88337    1.62043   -1.10495
C      2.41417   -0.57484   -5.13908
C      2.85091   -0.22979   -2.93145
C      1.80735    0.66142   -3.31337
C      3.20987   -0.98091   -4.11388
C      1.37846    1.64200   -2.40740
C      0.26849    0.62266   -5.28599
C     -1.40884    1.87842   -7.46526
C     -0.17835    0.18413   -8.86729
C     -1.77495   -0.61321   -7.08861
C     -0.78578    0.48115   -7.49592
N      1.51879    0.41840   -4.66604
O     -0.74638    0.89973   -4.68353
O      4.16051   -1.96419   -4.19795
O      0.40355    0.44408   -6.61067
Br     0.27315    3.12522   -2.89189
H      3.21854    0.69746    0.30917
H      4.14570   -0.93061   -1.33362
H      1.54346    2.37108   -0.39936
H      2.35938   -0.91495   -6.16036
H     -1.84193    2.10041   -6.48973
H     -0.65494    2.63602   -7.70042
H     -2.19822    1.93635   -8.22167
H      0.29990   -0.79989   -8.87424
H      0.57139    0.93665   -9.12791
H     -0.96121    0.19407   -9.63105
H     -1.27371   -1.58563   -7.04989
H     -2.22533   -0.40660   -6.11740
H     -2.57186   -0.67224   -7.83679
H      4.83988   -1.80090   -3.52511
