23

C      0.10026   -0.89153   -3.77305
C     -0.21655   -1.46029   -2.50842
C     -1.00721   -0.71111   -4.56517
C     -8.06571   -1.73149   -0.67642
C     -1.56711   -1.71127   -2.33265
C     -7.46267   -2.68168    0.09825
C     -5.66366   -1.99893   -0.99348
C     -2.13397   -2.32362   -1.13997
C     -8.14607   -3.55696    1.10669
N     -6.09583   -2.82898   -0.09360
N     -3.35143   -2.44366   -0.72032
N     -4.36059   -1.90427   -1.45912
S     -2.45069   -1.25038   -3.77931
S     -6.89152   -0.94861   -1.70980
H      1.10469   -0.62835   -4.08738
H      0.51780   -1.68127   -1.74010
H     -1.05838   -0.31118   -5.56990
H     -9.10888   -1.44770   -0.71340
H     -1.39850   -2.76292   -0.46772
H     -8.00427   -4.61263    0.85259
H     -7.71492   -3.40005    2.10102
H     -9.21760   -3.34695    1.15168
H     -4.16609   -1.11797   -2.07700
