44

C      0.99309   -4.66713    1.79112
C      1.13729   -3.25940   -0.18430
C      1.34957   -3.43044    1.17092
C      0.46258   -5.69017    1.05089
C      0.55317   -4.31026   -0.99639
C     -1.10915    0.68783    1.84119
C      1.59368   -2.00104   -0.87082
C     -1.52639   -0.13278   -1.22199
C      0.62507    1.17486   -1.20457
C     -0.79515   -1.47951   -1.40007
C      1.03320    0.00685   -2.12466
C     -1.44210    2.10082    0.02587
C     -0.66300    0.85542   -0.43278
C      1.94286   -2.33455    2.02153
C      0.07057   -7.03053    1.60353
C     -2.63255    2.58856    2.21541
N      0.26800   -5.49114   -0.28797
N     -1.90851    1.68996    1.33698
N      0.64639   -1.25997   -1.51911
O      0.29020   -4.25559   -2.20518
O     -1.08307    0.25220    2.97453
O      2.78252   -1.66406   -0.83286
O     -0.30836    0.21319    0.83593
H      1.14278   -4.80367    2.85620
H     -1.75548    0.31910   -2.19413
H     -2.48009   -0.29784   -0.71104
H      1.41402    1.38400   -0.47717
H      0.47409    2.08210   -1.80195
H     -0.97795   -2.10546   -0.52735
H     -1.17204   -2.01327   -2.27905
H      0.53765    0.09028   -3.09913
H      2.10914   -0.00490   -2.29010
H     -0.79022    2.98609    0.09165
H     -2.27313    2.33234   -0.64859
H      2.99000   -2.17692    1.74904
H      1.88215   -2.58684    3.08282
H      1.41896   -1.38894    1.86177
H     -0.99405   -7.22980    1.43414
H      0.25915   -7.07207    2.67745
H      0.64115   -7.83414    1.12357
H     -2.06702    3.51265    2.40038
H     -2.79690    2.07957    3.16595
H     -3.59968    2.84936    1.77405
H     -0.13197   -6.22778   -0.86174
