20

C      1.46733   -1.37181   -0.33012
C      0.39423   -0.91666    0.43166
C      7.35608   -1.22511   -0.77238
C      7.07116    0.01707   -0.25190
C      2.72475   -1.61298    0.24623
C      0.57266   -0.72455    1.79926
C      2.86575   -1.42596    1.62456
C      1.79999   -0.98420    2.40772
C      5.17883   -1.49193   -0.52021
C      3.83109   -2.11966   -0.63745
N      6.28589   -2.05994   -0.92921
O      3.60576   -2.97525   -1.47860
F     -0.44440   -0.29444    2.56538
F      4.02325   -1.70977    2.24966
F      1.95191   -0.82738    3.73061
S      5.38812    0.14948    0.07827
H      1.34915   -1.54659   -1.39443
H     -0.57603   -0.71249   -0.00916
H      8.34635   -1.56480   -1.05642
H      7.75114    0.83707   -0.05953
