28

C     -3.17574    3.40589    2.83333
C     -3.95694    2.90556    3.87649
C     -1.91290    2.85965    2.58771
C     -3.46993    1.86284    4.66867
C     -1.39778    1.81032    3.36177
C     -2.20775    1.32822    4.40563
C      0.69327   -1.07044    2.33859
C      1.88194   -2.86852    1.88210
C      2.53963   -2.12056    3.07087
C      0.91995    2.07998    2.27338
C     -0.04048    1.18655    3.06923
N      0.78373   -1.99327    1.45139
N     -0.27552   -0.10596    2.40739
O      1.60729   -1.04414    3.36321
Cl    -1.64572    0.02057    5.43767
H     -3.54411    4.21862    2.21348
H     -4.93983    3.32161    4.08031
H     -1.31438    3.26320    1.77752
H     -4.06114    1.46373    5.48678
H      2.58844   -3.03496    1.06206
H      1.49013   -3.84832    2.18330
H      2.64943   -2.72163    3.97591
H      3.50288   -1.66796    2.81537
H      0.56148    2.26309    1.25550
H      1.06805    3.04392    2.77101
H      1.88950    1.58033    2.19828
H      0.43300    0.95397    4.02446
H     -0.85428   -0.08065    1.57556
