28

C      4.14389    0.86186    3.94469
C      4.22110   -0.19084    3.03126
C      2.89427    1.24591    4.44783
C      3.05909   -0.85812    2.62225
C      1.73916    0.58026    4.03712
C      1.80556   -0.48219    3.11967
C     -1.79484   -0.45840    2.18984
C     -3.95489   -0.42331    1.75662
C     -3.66412   -1.56530    2.76335
C      0.67564   -2.29522    1.67389
C      0.51328   -1.18968    2.72391
N     -2.62956    0.08978    1.38413
N     -0.46053   -0.16644    2.30094
O     -2.25807   -1.39014    3.08876
H      5.04537    1.37988    4.26183
H      5.18518   -0.49643    2.63245
H      2.82227    2.06486    5.15923
H      3.14552   -1.67325    1.91113
H      0.76857    0.88630    4.41831
H     -4.49258   -0.78276    0.87324
H     -4.55770    0.37543    2.20743
H     -4.23244   -1.50335    3.69365
H     -3.78520   -2.56241    2.32813
H      1.08771   -1.90191    0.73840
H      1.33118   -3.09429    2.03435
H     -0.30083   -2.73649    1.45674
H      0.09398   -1.64319    3.62661
H     -0.14715    0.44206    1.55193
