21   
Generated by ForceBalance from scan.xyz: Frame 1 of 15
C       -1.6972847969   -1.1727822079    0.7254389913
C       -0.3825923622   -0.9198636959    0.2581608357
C       -2.2025712810   -2.4646060258    0.7986246202
C        0.4682658380   -1.9408813904   -0.1541827888
C       -1.3525389145   -3.5059145519    0.3912776808
C       -0.0514567746   -3.2412352081   -0.0814512413
C        1.8066380810   -4.8626896977   -0.6218054597
C        3.3141631966   -6.7713793938   -0.8949283835
N       -1.5702026917   -4.8765757996    0.3554775708
N       -0.5076180962   -5.4515573764   -0.0866106959
N        0.4449283544   -4.4912818301   -0.3829162979
N        1.9852462565   -6.1994819134   -0.7266655548
O        2.6674060888   -4.0006810926   -0.7344474836
H       -2.3173750194   -0.3350768396    1.0316040444
H       -0.0275257343    0.1065379142    0.2222883714
H       -3.2068098048   -2.6733934832    1.1543429612
H        1.4759689894   -1.7566459730   -0.5054506084
H        3.2228560337   -7.7405038062   -1.3902384418
H        3.8238490414   -6.9049877490    0.0663952138
H        3.9145053060   -6.1059456558   -1.5166299764
H        1.1899206475   -6.7931394854   -0.5200829768
21   
Generated by ForceBalance from scan.xyz: Frame 2 of 15
C       -1.6444993859   -1.2018009834    0.8252183944
C       -0.3750879391   -0.9291495087    0.2574017895
C       -2.1455345096   -2.4966380145    0.8845782635
C        0.4312699521   -1.9327673395   -0.2730128179
C       -1.3359639002   -3.5178976434    0.3628682526
C       -0.0855642696   -3.2339823293   -0.2165979459
C        1.7775962810   -4.8488200426   -0.6948776066
C        3.3064526485   -6.7556000130   -0.7806827999
N       -1.5617109619   -4.8871010507    0.2844720030
N       -0.5445534866   -5.4429410202   -0.2648129240
N        0.3918343803   -4.4701585183   -0.6168402131
N        1.9657573820   -6.1871133112   -0.7500862409
O        2.6468039847   -3.9899556537   -0.7392791500
H       -2.2332422212   -0.3786499406    1.2199408534
H       -0.0185611320    0.0971883356    0.2380336308
H       -3.1165123115   -2.7216321631    1.3148799698
H        1.4080988429   -1.7327381584   -0.6956836649
H        3.2659388415   -7.7327374934   -1.2671451352
H        3.7217520493   -6.8723405709    0.2271146455
H        3.9617742744   -6.0969838951   -1.3519884117
H        1.1570997935   -6.7787637836   -0.5971826158
21   
Generated by ForceBalance from scan.xyz: Frame 3 of 15
C       -1.5851125024   -1.2389414775    0.9135778933
C       -0.3760287682   -0.9307706371    0.2444118912
C       -2.0655026903   -2.5426906748    0.9697379032
C        0.3888963631   -1.9052091508   -0.3937219070
C       -1.2924467333   -3.5300564163    0.3414925446
C       -0.1098543459   -3.2118638420   -0.3456818484
C        1.7585599798   -4.8280059925   -0.7329442769
C        3.2753522283   -6.7409706026   -0.6657827037
N       -1.5169141497   -4.8994171427    0.2195692906
N       -0.5487725831   -5.4247430888   -0.4274987034
N        0.3685285520   -4.4263764613   -0.8252154152
N        1.9432520610   -6.1664580565   -0.8025065092
O        2.6360850812   -3.9815962235   -0.6533092081
H       -2.1447986943   -0.4383406828    1.3887180210
H       -0.0309513987    0.0995446179    0.2330248753
H       -2.9925423121   -2.7969072685    1.4743067809
H        1.3257129744   -1.6757519498   -0.8868444640
H        3.2784808550   -7.7328494672   -1.1229364227
H        3.5767046601   -6.8274819191    0.3847070117
H        3.9962811869   -6.1056853960   -1.1819210576
H        1.1210398417   -6.7533682090   -0.7224146812
21   
Generated by ForceBalance from scan.xyz: Frame 4 of 15
C       -1.5295021117   -1.2748339870    0.9731502905
C       -0.4004969072   -0.9253591408    0.1966491266
C       -1.9703376153   -2.5929992252    1.0486783319
C        0.3207519653   -1.8739001554   -0.5286545171
C       -1.2359443936   -3.5467428383    0.3324106131
C       -0.1406658354   -3.1912356494   -0.4660631229
C        1.7319775193   -4.8039475370   -0.7320220484
C        3.2311573338   -6.7228157727   -0.5753347337
N       -1.4543385303   -4.9185550194    0.1825668852
N       -0.5486275886   -5.4108289511   -0.5603432551
N        0.3576837521   -4.3816124210   -1.0015982004
N        1.9330436176   -6.1347706361   -0.8827094061
O        2.5894357473   -3.9752146981   -0.4717362760
H       -2.0609971133   -0.4973982278    1.5144667590
H       -0.0810078545    0.1129048872    0.1711472614
H       -2.8401529835   -2.8797896532    1.6315724861
H        1.2038204075   -1.6103376714   -1.0988225042
H        3.3011542162   -7.6932505596   -1.0715402706
H        3.3751018970   -6.8579019606    0.5031589333
H        4.0203100826   -6.0705164936   -0.9511600068
H        1.1086748644   -6.7228331350   -0.9165299125
21   
Generated by ForceBalance from scan.xyz: Frame 5 of 15
C       -1.4751534800   -1.2953866290    0.9936718751
C       -0.4476839325   -0.9205987915    0.1000601739
C       -1.8508793419   -2.6292635981    1.1389264847
C        0.2362128862   -1.8599829326   -0.6740356636
C       -1.1507412291   -3.5656291072    0.3713509652
C       -0.1631404165   -3.1908021529   -0.5466472442
C        1.7088470710   -4.8056889950   -0.6516453486
C        3.1967559657   -6.7349732068   -0.5371595080
N       -1.3472531507   -4.9475400652    0.2461787603
N       -0.5119670209   -5.4291566790   -0.5698318168
N        0.3719797492   -4.3629026326   -1.0953864891
N        1.9975217924   -6.0738241568   -1.0409163955
O        2.4639237843   -4.0443370626   -0.0732489502
H       -1.9829145810   -0.5273149902    1.5699465541
H       -0.1755029597    0.1283555909    0.0211414043
H       -2.6471427691   -2.9368804589    1.8096751706
H        1.0478073383   -1.5717394693   -1.3332479522
H        3.4242226250   -7.5859342208   -1.1830501626
H        3.0709639939   -7.0869739789    0.4939197780
H        4.0299913176   -6.0323367753   -0.5655731061
H        1.2051650727   -6.6486600036   -1.3026947751
21   
Generated by ForceBalance from scan.xyz: Frame 6 of 15
C       -1.4173549953   -1.2706977703    0.9805684418
C       -0.5017276577   -0.9127752694   -0.0311499565
C       -1.7237335979   -2.6078504984    1.2316090263
C        0.1400735858   -1.8746645040   -0.8161542909
C       -1.0657638592   -3.5603864818    0.4501817220
C       -0.1881472207   -3.2093929770   -0.5817486606
C        1.6422027736   -4.8553955378   -0.4881501083
C        3.1680550298   -6.7619547249   -0.5398065572
N       -1.2483770632   -4.9518521751    0.3965401820
N       -0.4988439605   -5.4635596400   -0.4718043176
N        0.3730928360   -4.3792060310   -1.1143549710
N        2.1230448787   -5.9414476410   -1.1426734495
O        2.1608007528   -4.2873785547    0.4535252528
H       -1.8977843106   -0.4896227655    1.5627647597
H       -0.2842636078    0.1387684184   -0.1975860292
H       -2.4399926964   -2.9037958525    1.9917604572
H        0.8663598530   -1.5942944800   -1.5725107183
H        3.6226280848   -7.3813100899   -1.3161447716
H        2.7740124627   -7.4067986832    0.2549272414
H        3.9299336202   -6.1082383787   -0.1140031941
H        1.4826838063   -6.3794524763   -1.7935693035
21   
Generated by ForceBalance from scan.xyz: Frame 7 of 15
C       -1.3632894575   -1.2667187191    1.0094020212
C       -0.5577035985   -0.8897171860   -0.0823276484
C       -1.5962365861   -2.6129634171    1.2972196188
C        0.0536987176   -1.8403839205   -0.9079051371
C       -0.9711856785   -3.5460560035    0.4719494973
C       -0.1987346290   -3.1848659459   -0.6405699386
C        1.5855127454   -4.8549718681   -0.4304181464
C        3.1215281581   -6.7595570239   -0.4817528769
N       -1.1669454014   -4.9406947162    0.4089975430
N       -0.5085120031   -5.4601272604   -0.5090786406
N        0.4162277254   -4.3151763760   -1.1978189000
N        2.1584284681   -5.8712001615   -1.1206488223
O        1.9624342616   -4.3965713446    0.6317523469
H       -1.8244469455   -0.4977040445    1.6222539860
H       -0.3986743052    0.1666133893   -0.2817239074
H       -2.2392308115   -2.9273169869    2.1133590769
H        0.7049810137   -1.5431338752   -1.7239580695
H        3.7145925438   -7.2563091584   -1.2530900194
H        2.6281195703   -7.5163820005    0.1400797719
H        3.7833096963   -6.1658030571    0.1496143243
H        1.6369382350   -6.2069338950   -1.9207302138
21   
Generated by ForceBalance from scan.xyz: Frame 8 of 15
C       -1.6094005413   -1.3255954125    0.0224769412
C       -0.3300412495   -0.9722751164    0.4930027143
C       -1.9821821788   -2.6652491475   -0.1032820945
C        0.6212062514   -1.9405257305    0.8347073953
C       -1.0194703069   -3.6160265382    0.2308571758
C        0.2434746287   -3.2786359938    0.7368126031
C        1.5915960583   -4.9565581250   -0.4399151114
C        2.8727258017   -6.8719646435   -1.2638565330
N       -1.1684997425   -5.0102311193    0.3767511106
N       -0.1206502763   -5.5491645133    0.7741264450
N        1.0470338509   -4.4221772407    0.8507138089
N        2.4350334454   -5.9879878850   -0.1906023480
O        1.3268622781   -4.4829800008   -1.5289601074
H       -2.3206074600   -0.5433895565   -0.2264749446
H       -0.0719935942    0.0795074843    0.5826947867
H       -2.9730520829   -2.9616823393   -0.4329064690
H        1.6186953025   -1.6612260094    1.1594840110
H        2.1097697063   -7.6194004326   -1.5131768054
H        3.7894521501   -7.3802088567   -0.9559577689
H        3.0781883607   -6.2727126493   -2.1514134015
H        2.4364326476   -6.3334642274    0.7609552983
21   
Generated by ForceBalance from scan.xyz: Frame 9 of 15
C       -1.6386536575   -1.3292678373    0.0764234725
C       -0.3118767516   -0.9945603315    0.4194205519
C       -2.0523048836   -2.6599655533    0.0216409368
C        0.6421545538   -1.9736533696    0.7102283540
C       -1.0867270314   -3.6298361158    0.3006545955
C        0.2193785170   -3.3020438633    0.6813712104
C        1.6705365559   -4.9581273888   -0.4232755111
C        2.9438211444   -6.8761350769   -1.2406064430
N       -1.2301129107   -5.0207420774    0.4321017601
N       -0.1337503070   -5.5522596855    0.7371483765
N        0.9638859570   -4.4843160404    0.8036073243
N        2.4153798963   -6.0589114145   -0.1536740856
O        1.5941903486   -4.3765137107   -1.4883498526
H       -2.3488519543   -0.5353233326   -0.1359767345
H       -0.0232164820    0.0525769047    0.4495758779
H       -3.0732171449   -2.9383806016   -0.2205606931
H        1.6691227061   -1.7108460741    0.9435737042
H        2.1705033030   -7.5138583184   -1.6856023891
H        3.7499697143   -7.5025659405   -0.8523505534
H        3.3436305766   -6.2198012518   -2.0141628691
H        2.2329537615   -6.5034209306    0.7377883896
21   
Generated by ForceBalance from scan.xyz: Frame 10 of 15
C       -1.7020548831   -1.3476874145    0.0991855978
C       -0.3467863519   -0.9927811379    0.2775534476
C       -2.1129460172   -2.6770396503    0.1752215486
C        0.6379372883   -1.9484972634    0.5354859487
C       -1.1185917631   -3.6299310396    0.4183939697
C        0.2167438611   -3.2746062210    0.6395409433
C        1.8117773421   -4.9009645198   -0.3241574363
C        2.9633522102   -6.8337361456   -1.2671586715
N       -1.2318160563   -5.0123404082    0.6197185021
N       -0.0915469913   -5.5110699713    0.8342521549
N        0.9506110016   -4.4580007985    0.7895904946
N        2.2389396107   -6.1811618586   -0.1821227364
O        2.1407993491   -4.1306151814   -1.2093169425
H       -2.4335608569   -0.5680746846   -0.0930676078
H       -0.0619299389    0.0530142113    0.2013930291
H       -3.1514693843   -2.9694128744    0.0547888646
H        1.6826740453   -1.6757168706    0.6373984697
H        2.2931847036   -7.1631767898   -2.0704024142
H        3.4932853618   -7.6991824486   -0.8630610959
H        3.6879484501   -6.1338347336   -1.6842067007
H        1.7158027904   -6.7576021859    0.4663031152
21   
Generated by ForceBalance from scan.xyz: Frame 11 of 15
C       -1.7267966807   -1.3310351245    0.1463641245
C       -0.3517030359   -1.0025446546    0.1757521438
C       -2.1558505295   -2.6449687353    0.3109353404
C        0.6355862977   -1.9683190273    0.3720884421
C       -1.1625019233   -3.6156847322    0.4923287650
C        0.1967173851   -3.2815893042    0.5589698821
C        1.8820720877   -4.9108209758   -0.2686068267
C        3.0208730146   -6.8369019364   -1.2418025311
N       -1.2829450798   -4.9887998741    0.7205924814
N       -0.1256682237   -5.4999339811    0.8362560794
N        0.8899106425   -4.4841825661    0.7181896156
N        2.1160012524   -6.2447896565   -0.2641604170
O        2.4643096337   -4.0837022698   -0.9515784165
H       -2.4569499035   -0.5408265988   -0.0031868521
H       -0.0555475933    0.0331316767    0.0330341811
H       -3.2070331810   -2.9160591537    0.3005694191
H        1.6904482799   -1.7201948113    0.3640095286
H        2.5392246025   -6.9714904651   -2.2175506097
H        3.3527809624   -7.8080058994   -0.8679469606
H        3.8872675551   -6.1869992894   -1.3696688079
H        1.4398906593   -6.8280838950    0.2146254386
21   
Generated by ForceBalance from scan.xyz: Frame 12 of 15
C       -1.7361389779   -1.3095787593    0.2286875607
C       -0.3536651925   -1.0209049851    0.1288764651
C       -2.1879214286   -2.6097694000    0.4267143467
C        0.6201029650   -2.0127725994    0.2286119571
C       -1.2128524270   -3.6141959562    0.5132557892
C        0.1576591588   -3.3160068334    0.4434009326
C        1.9080632934   -4.9494791919   -0.2788974725
C        3.1107206333   -6.8732401453   -1.1875446481
N       -1.3549045315   -4.9846984243    0.7182494603
N       -0.1983703118   -5.5270765119    0.7238361141
N        0.8024652916   -4.5418210647    0.5655194211
N        2.0794102662   -6.2902341496   -0.3394457938
O        2.6118920613   -4.1063638514   -0.8145179328
H       -2.4526091651   -0.4968934829    0.1500379199
H       -0.0428229555    0.0072115659   -0.0358512284
H       -3.2435947872   -2.8490085490    0.5098641245
H        1.6773039995   -1.7982084342    0.1300849096
H        2.7711394232   -6.9856510670   -2.2238895257
H        3.3815769174   -7.8541198014   -0.7903793440
H        3.9892607120   -6.2271854247   -1.1784371785
H        1.3397023770   -6.8700343805    0.0395038939
21   
Generated by ForceBalance from scan.xyz: Frame 13 of 15
C       -1.7534388270   -1.2710805293    0.3631241467
C       -0.3772353552   -1.0121332678    0.1456295898
C       -2.2210158089   -2.5643191336    0.5633406512
C        0.5755635975   -2.0272970264    0.1263376485
C       -1.2705674922   -3.5970402972    0.5347853501
C        0.0963888444   -3.3267915453    0.3382547962
C        1.8941636022   -4.9603082542   -0.3125501134
C        3.1870661580   -6.8815408845   -1.1042885004
N       -1.4328562460   -4.9679354093    0.6984981351
N       -0.2885041200   -5.5369343597    0.5875605692
N        0.6985382309   -4.5713278737    0.3865812508
N        2.0664753018   -6.3006801883   -0.3773966484
O        2.6543436985   -4.1066299746   -0.7469415060
H       -2.4516625521   -0.4389733245    0.3726781252
H       -0.0557532473    0.0135042690   -0.0141953159
H       -3.2715629558   -2.7795094740    0.7325775943
H        1.6264274727   -1.8369989975   -0.0538391506
H        2.9491333301   -7.0342548314   -2.1635483932
H        3.4455100928   -7.8421752023   -0.6526710259
H        4.0430616773   -6.2097458411   -1.0335262429
H        1.2949952868   -6.8829341547   -0.0718101232
21   
Generated by ForceBalance from scan.xyz: Frame 14 of 15
C       -1.7033184731   -1.2602674905    0.5033495905
C       -0.3431970395   -1.0291317665    0.1758074957
C       -2.1902313761   -2.5476968797    0.6901427107
C        0.5722577176   -2.0668539332    0.0281359601
C       -1.2784829694   -3.6054094801    0.5384827892
C        0.0733248025   -3.3628233502    0.2229829585
C        1.8882314963   -5.0051737959   -0.3915735701
C        3.2579293349   -6.9403598447   -1.0279522522
N       -1.4692009320   -4.9751381697    0.6582872449
N       -0.3520215211   -5.5692666034    0.4254965357
N        0.6270535515   -4.6245522053    0.1696720641
N        2.0577830721   -6.3455714056   -0.4579408592
O        2.6883994189   -4.1461055892   -0.7357071524
H       -2.3722482189   -0.4108495038    0.6086399964
H       -0.0050570112   -0.0061739239    0.0340531220
H       -3.2284176733   -2.7413978025    0.9415917405
H        1.6105370706   -1.8977416537   -0.2286949109
H        3.0873377834   -7.2799470028   -2.0560128216
H        3.5726836028   -7.7910476234   -0.4174093247
H        4.0490910142   -6.1905145699   -1.0333659869
H        1.2738010812   -6.9273801966   -0.1843907414
21   
Generated by ForceBalance from scan.xyz: Frame 15 of 15
C       -1.6762665268   -1.2508552997    0.6122053581
C       -0.3420124768   -1.0261980251    0.1870012826
C       -2.1737451842   -2.5362319901    0.7830820778
C        0.5386233863   -2.0694456887   -0.0812761102
C       -1.2957532482   -3.5999604758    0.5160461183
C        0.0286114838   -3.3642300561    0.0937204958
C        1.8622704801   -5.0080092850   -0.4701179257
C        3.3019042135   -6.9428159933   -0.9293876224
N       -1.5007872637   -4.9702093411    0.5959912849
N       -0.4135082689   -5.5719214897    0.2581789865
N        0.5468210047   -4.6308923966   -0.0571183388
N        2.0507348102   -6.3475503688   -0.4831558416
O        2.6830540591   -4.1471404372   -0.7572974628
H       -2.3177553230   -0.3960504022    0.8066677190
H        0.0040053989   -0.0031352097    0.0666327507
H       -3.1925107490   -2.7238547382    1.1080119908
H        1.5584131467   -1.9062215458   -0.4069105695
H        3.2206723795   -7.3235630729   -1.9539773146
H        3.5781306863   -7.7643086589   -0.2627811224
H        4.0799199348   -6.1799264208   -0.8992303544
H        1.2537458550   -6.9314528327   -0.2552358469
