28

C     -1.16926    1.61863   -1.79855
C     -0.52810    2.65217   -1.09931
C     -0.22462    0.08321   -0.15628
C      0.43789    1.09760    0.54714
C     -0.19453   -1.31899    0.12157
C     -1.00567    0.31715   -1.31052
C      0.25037    2.37414    0.03947
C     -0.93251   -1.92630   -0.86914
C      1.91158   -2.54369    0.86042
C      1.30328    0.64758    1.70103
C      0.77566   -0.66959    2.31758
C      0.57127   -1.82943    1.31020
C     -1.19058   -3.37643   -1.11493
N     -1.47869   -0.92952   -1.71258
O      2.98908   -1.99801    1.21489
O      1.72893   -3.60503    0.19941
F      0.85962    3.44547    0.65909
H     -1.76177    1.84052   -2.68373
H     -0.61365    3.68345   -1.43038
H      2.31710    0.45134    1.33299
H      1.37142    1.43093    2.46418
H      1.49062   -1.00031    3.07572
H     -0.18150   -0.45953    2.81873
H     -0.01348   -2.61270    1.80805
H     -2.19597   -3.68154   -0.78930
H     -1.09939   -3.62251   -2.18195
H     -0.42755   -3.94617   -0.57598
H     -1.80154   -1.13133   -2.64846
