39

C     -2.75130    0.77621    0.53772
C     -1.72276    2.43099    1.95187
C     -3.90689    0.80314    1.32349
C     -2.86896    2.48052    2.74870
C     -0.84853   -0.65898   -3.70975
C      0.64859    0.79964   -3.48439
C     -1.64141    1.57677    0.84420
C     -3.94060    1.65680    2.42054
C      2.78610    1.00606    1.34779
C      2.59308   -0.47783    1.62022
C      1.39989    0.41540    1.39008
C     -0.07985   -0.21067    3.18387
C     -0.40372    1.53028   -0.02181
C      1.40002    0.16527   -1.14044
C      0.52010    0.27897    0.13379
N     -0.25676    0.37996   -4.36071
N     -0.36048   -0.90406   -2.49631
N      0.60951    0.04665   -2.36215
O     -0.21465   -0.93307    0.29678
O      0.70813    0.80644    2.54900
F     -5.06048    1.69302    3.19383
H     -2.71645    0.11773   -0.32547
H     -0.86782    3.04662    2.21363
H     -4.76765    0.18205    1.09479
H     -2.93623    3.13728    3.61077
H     -1.65140   -1.25097   -4.12954
H      1.33794    1.62364   -3.61778
H      3.04296    1.63832    2.19133
H      3.23446    1.30699    0.40685
H      2.88155   -1.19291    0.85669
H      2.75079   -0.82205    2.63714
H     -0.39403    0.21200    4.14059
H      0.51714   -1.11399    3.35809
H     -0.95578   -0.47207    2.58721
H      0.21113    2.41750    0.16150
H     -0.72698    1.58343   -1.06613
H      2.01793    1.05418   -1.27006
H      2.04607   -0.71192   -1.06523
H     -0.57782   -1.19204   -0.57498
