65

C     -1.44286  -10.74040   -1.20892
C     -1.59042   -9.36155   -1.39474
C     -1.00374  -11.23259    0.02551
C     -1.30568   -8.47902   -0.34950
C     -0.71045  -10.35136    1.06847
C     -2.33870   -8.43347    5.32768
C     -3.15074   -9.30295    3.21769
C     -3.39838   -9.04540    5.98869
C     -4.21360   -9.91158    3.88114
C      2.28508   -5.84327    1.12698
C      1.36452   -6.82093    0.91143
C     -2.19247   -8.55431    3.92978
C     -0.86497   -8.96510    0.89429
C     -4.34920   -9.79254    5.27328
C     -1.06844   -7.87133    3.28364
C     -0.55876   -8.03947    1.99750
C      2.26653   -5.16193    2.39477
C      0.52791   -6.42122    3.14817
C      3.34138   -0.51283    5.02403
C      3.60469    0.05339    6.41636
C      4.98310   -0.50885    6.80302
C     -6.47074  -12.05300    6.99893
C     -5.44817  -10.95466    7.40900
C     -6.22335  -11.67963    5.50901
C      5.11777   -1.78745    5.94852
C     -5.53740  -10.36796    5.97458
C      4.20751   -2.33091    3.60806
C      3.16952   -3.43928    3.77080
N     -0.39148   -6.88602    3.97635
N      1.43331   -5.44319    3.36821
N      0.46523   -7.10161    1.90962
N      4.27249   -1.49722    4.79191
N     -6.61921   -9.23938    5.98737
O      2.45304   -0.18966    4.24157
O      3.18148   -4.19190    2.53380
H     -1.66329  -11.42621   -2.02228
H     -1.93217   -8.97389   -2.35055
H     -0.87653  -12.30199    0.17091
H     -1.44260   -7.40946   -0.48957
H     -0.35653  -10.73016    2.02348
H     -1.60470   -7.84949    5.87232
H     -3.07241   -9.40311    2.14163
H     -3.47417   -8.95418    7.07102
H     -4.93400  -10.49103    3.30682
H      3.01468   -5.57460    0.37317
H      1.29076   -7.39963   -0.00214
H      3.55007    1.14347    6.40092
H      2.80809   -0.30593    7.07819
H      5.76763    0.19905    6.52122
H      5.08549   -0.71722    7.87016
H     -7.49080  -11.84166    7.33439
H     -6.22563  -13.07492    7.28886
H     -5.69796  -10.29638    8.24717
H     -4.44862  -11.35898    7.57623
H     -5.48562  -12.32982    5.03619
H     -7.08714  -11.59607    4.84173
H      6.14907   -1.97819    5.63452
H      4.75990   -2.67608    6.48876
H      5.19553   -2.75793    3.41161
H      3.92721   -1.70111    2.76012
H      2.17581   -3.01700    3.93214
H      3.40662   -4.11129    4.60083
H     -7.49203   -9.51962    6.45353
H     -6.83796   -8.95969    5.02326
H     -6.24542   -8.40934    6.46404
