56

C      1.04242    2.30077    3.90498
C     -0.39654    0.39667    4.15007
C      1.16480    2.39881    5.28586
C     -0.28567    0.47986    5.54579
C      0.25808    1.29659    3.30543
C      0.49940    1.48539    6.12015
C     -2.15028   -0.56991   -0.78916
C     -1.33193   -1.77534   -1.26547
C      1.50955    0.57688    1.22168
C      1.27583   -0.42243    0.07921
C     -1.00981    0.43273    1.25639
C     -1.09771    0.44968   -0.27770
C     -0.12575   -1.10155   -1.92880
C      0.20526    1.21025    1.78202
C      0.26003    0.06669   -0.97124
C      0.84470    1.24212   -1.76583
C      1.66069   -1.31448   -4.41917
C      2.35557   -3.46359   -3.31675
C     -0.02432   -3.17049   -4.06958
C      0.02726    0.75425    8.34767
C      1.21268   -2.46047   -3.49846
O      0.16832    2.55656    1.23932
O      0.67938    1.66254    7.46751
O      0.97573   -1.97322   -2.15939
H      1.55801    3.01417    3.26926
H     -1.01138   -0.39627    3.73640
H      1.77036    3.17600    5.74373
H     -0.81564   -0.23930    6.16047
H     -2.70705   -0.14830   -1.63467
H     -2.88707   -0.82786   -0.02098
H     -0.98617   -2.38387   -0.42205
H     -1.88064   -2.43368   -1.94450
H      2.04059    0.06694    2.03002
H      2.15131    1.40107    0.89771
H      2.22618   -0.64689   -0.41244
H      0.93388   -1.37481    0.49913
H     -1.93155    0.85224    1.68002
H     -0.95517   -0.60476    1.60426
H     -1.37743    1.46166   -0.58057
H     -0.46093   -0.65663   -2.87460
H      0.12876    1.59498   -2.51832
H      1.75856    0.93839   -2.28867
H      1.07979    2.08688   -1.11421
H      0.87590   -0.56348   -4.54916
H      2.54130   -0.81821   -4.00079
H      1.91840   -1.69904   -5.41173
H      2.04499   -4.27378   -2.65025
H      3.22345   -2.96838   -2.87107
H      2.65383   -3.89416   -4.27786
H     -0.35622   -3.96199   -3.39099
H     -0.85646   -2.47726   -4.22565
H      0.21341   -3.62345   -5.03785
H      0.30180    1.06551    9.35664
H      0.36455   -0.27668    8.18168
H     -1.06352    0.80245    8.23762
H     -0.60955    2.99773    1.61934
