28   

C       -3.3212226062    4.3776586956    2.2440568405
C       -3.7908022110    3.1657879303    2.7564633561
C       -2.3297570008    4.3765830316    1.2594836092
C       -3.2716612862    1.9556713718    2.2822762712
C       -1.8015023256    3.1654146031    0.7970548584
C       -2.2641114281    1.9396938590    1.3025335613
C       -0.5315446173    0.3972595081    0.1308222595
C        0.5573614972   -0.2158360754    0.8483088158
C       -0.5199770938    0.0341626088   -1.3278069225
C       -1.7052720252    0.6891145939    0.8350892389
C        1.9106406726   -0.2954143421   -1.1914107013
C        0.6750114370   -0.9307027444   -3.2781644125
N        1.6972590236   -0.6040529023    0.2010148910
N        0.6617586585   -0.3969458636   -1.9208884477
O        0.4881883089   -0.4598533877    2.0401573409
O       -1.5567447007    0.0838011957   -1.9731171759
H       -3.7248733754    5.3153279388    2.6092828926
H       -4.5554078008    3.1622710926    3.5250156184
H       -1.9689374725    5.3146456573    0.8533759146
H       -3.6447765291    1.0258023449    2.6963761536
H       -1.0342804710    3.1792119984    0.0314841082
H       -2.0813491623   -0.1577446991    1.3996244342
H        2.3197240897    0.7160691935   -1.2887612835
H        2.6372160686   -1.0023478156   -1.6058358496
H        1.5990521209   -0.6447412146   -3.7904545320
H       -0.1597470132   -0.5407031502   -3.8694087173
H        0.6062956982   -2.0228122297   -3.2509354734
H        2.3621135480   -1.1252204351    0.7595598540
28   

C       -3.4678354221    4.3768650253    2.0372542374
C       -3.8193496460    3.2242364828    2.7439502825
C       -2.5591138844    4.2914047426    0.9793279714
C       -3.2640603590    1.9888467047    2.3916034075
C       -1.9930322051    3.0573223690    0.6384459286
C       -2.3346324603    1.8905729616    1.3412385514
C       -0.5676688164    0.3065544586    0.3024639628
C        0.4445840283   -0.4936972564    0.9450894820
C       -0.5892822519    0.1153714712   -1.1833444538
C       -1.7301788891    0.6159589429    0.9992064579
C        1.7750206398   -0.5716482267   -1.1152668600
C        0.4925264422   -0.6966274922   -3.2626271918
N        1.5235982493   -0.9629404004    0.2497718931
N        0.5314901673   -0.3849813199   -1.8377246618
O        0.3651597699   -0.8156040515    2.1179030189
O       -1.5897085339    0.4136845769   -1.8197671332
H       -3.8999864552    5.3337361666    2.3077076145
H       -4.5203358574    3.2868588089    3.5685571657
H       -2.2928068943    5.1811111150    0.4202737209
H       -3.5459644061    1.1072450148    2.9561451823
H       -1.2951766391    3.0040375372   -0.1896062887
H       -2.0060213598   -0.1327521635    1.7351584199
H        2.3554230855    0.3572009202   -1.1321170400
H        2.3662837407   -1.3543061374   -1.6024385779
H        0.9291559040    0.1245081585   -3.8396316140
H       -0.5337897832   -0.8591573429   -3.6077582947
H        1.0513564373   -1.6155339796   -3.4662029608
H        2.1345263639   -1.5860544207    0.7637553321
28   

C       -3.5031308800    4.3690353820    1.9198412724
C       -3.7837722984    3.2805585642    2.7485555029
C       -2.6372056600    4.2087244346    0.8354576869
C       -3.2011228909    2.0345949511    2.4909436132
C       -2.0421402192    2.9657795584    0.5891825652
C       -2.3132450257    1.8608503860    1.4140811042
C       -0.5585533986    0.2239358846    0.4581799466
C        0.4094824830   -0.6788246774    1.0311054189
C       -0.5737900502    0.1834651367   -1.0381814923
C       -1.6809349210    0.5709532910    1.1814983987
C        1.7474858850   -0.6439407434   -1.0253802434
C        0.4882335385   -0.4717439679   -3.1820780552
N        1.4608162101   -1.1481258981    0.2948940315
N        0.5254114538   -0.3120151489   -1.7320599345
O        0.3245554675   -1.0773171572    2.1799020704
O       -1.5481763132    0.5947755468   -1.6519145150
H       -3.9569545262    5.3338859076    2.1162398777
H       -4.4510455907    3.4013698193    3.5943750932
H       -2.4261763786    5.0470718651    0.1815262242
H       -3.4289577366    1.2047094777    3.1503310818
H       -1.3781260801    2.8609080860   -0.2609370015
H       -1.9106912414   -0.1080765000    1.9966481555
H        2.3838413376    0.2445841950   -0.9510711391
H        2.2942238480   -1.4115022661   -1.5834410784
H        0.9726860285    0.3814497725   -3.6670839134
H       -0.5405178651   -0.5449906858   -3.5496886109
H        1.0027564951   -1.3918108521   -3.4767428090
H        2.0470376517   -1.8302760094    0.7603809284
28   

C       -3.5261324235    4.3227356467    1.7807081902
C       -3.7444634105    3.2834648116    2.6864590123
C       -2.6841617133    4.1195489639    0.6853872945
C       -3.1253673928    2.0437515771    2.4931861966
C       -2.0528440317    2.8834398203    0.5020569920
C       -2.2646423990    1.8228452537    1.4018539458
C       -0.5523735902    0.1162681034    0.4755546056
C        0.3819164908   -0.8572354921    0.9874792574
C       -0.5681414297    0.1771205109   -1.0189372246
C       -1.6017219237    0.5333862538    1.2552839502
C        1.7293323789   -0.7149066276   -1.0552599439
C        0.4865558560   -0.3597404862   -3.1996171157
N        1.4123902896   -1.3165546845    0.2164251161
N        0.5237968663   -0.2928395298   -1.7421656424
O        0.2986914970   -1.3106524940    2.1159429007
O       -1.5429686363    0.6177286794   -1.6109373187
H       -4.0080642163    5.2828578144    1.9268934507
H       -4.3920151539    3.4374267516    3.5421903782
H       -2.5176141504    4.9203623571   -0.0259081845
H       -3.3073588973    1.2539170649    3.2132637355
H       -1.4016540822    2.7611039311   -0.3540799962
H       -1.7828120670   -0.0868892239    2.1274906250
H        2.3885074739    0.1466642057   -0.9029695914
H        2.2615368691   -1.4495743286   -1.6688466095
H        0.9658368539    0.5255336677   -3.6290556244
H       -0.5420423119   -0.4161237390   -3.5705963009
H        1.0062950349   -1.2556703326   -3.5535195944
H        1.9862232636   -2.0351142228    0.6407168962
28   

C       -3.6686935606    4.4606401795    1.7853455685
C       -3.7723477552    3.4535319440    2.7449722201
C       -2.8789293783    4.2556377340    0.6528316785
C       -3.0938762760    2.2433265978    2.5664368514
C       -2.1880964108    3.0496173095    0.4828190298
C       -2.2890529636    2.0153855379    1.4334058598
C       -0.6164262485    0.2767703450    0.4624806051
C        0.3054869551   -0.7439602158    0.9014047227
C       -0.6535541906    0.4281227142   -1.0242559032
C       -1.5706485656    0.7515161512    1.3198164504
C        1.6364931671   -0.4763075613   -1.1349843129
C        0.3829837828    0.0161932718   -3.2443270486
N        1.3124948856   -1.1747546204    0.0844385615
N        0.4325818138    0.0046554325   -1.7853166429
O        0.2452956631   -1.2491846872    2.0091909141
O       -1.6497489120    0.8626293777   -1.5835549355
H       -4.1968820367    5.3978983674    1.9196301299
H       -4.3773323826    3.6092557761    3.6310291929
H       -2.7966628716    5.0333435439   -0.0977729451
H       -3.1897812303    1.4796159832    3.3300465675
H       -1.5717628962    2.9440287614   -0.3992785899
H       -1.6702815834    0.1718628995    2.2320876274
H        2.3001025777    0.3669345271   -0.9144577780
H        2.1654374568   -1.1629927557   -1.8044290690
H        0.9072998623    0.8955625024   -3.6311179192
H       -0.6478128170    0.0348723945   -3.6126346529
H        0.8521022071   -0.8867999982   -3.6475636338
H        1.8908922048   -1.9158938105    0.4609754366
28   

C       -3.7081407172    4.4360169159    1.7477056897
C       -3.7116483053    3.4774605595    2.7601407124
C       -2.9759192088    4.2042403732    0.5828061888
C       -2.9937108867    2.2878010922    2.6005524852
C       -2.2453489548    3.0192694899    0.4305119195
C       -2.2496747969    2.0277833295    1.4321895253
C       -0.6369354768    0.2197057124    0.4523287466
C        0.2410908788   -0.8507027846    0.8651833221
C       -0.6443921047    0.4254178471   -1.0275293286
C       -1.4954000090    0.7808751293    1.3524531878
C        1.6226079958   -0.5363105635   -1.1274066894
C        0.4353055067    0.0847592420   -3.2406064932
N        1.2424165154   -1.2867780848    0.0440396630
N        0.4510392455    0.0133665678   -1.7822301711
O        0.1599415100   -1.3836021162    1.9586347942
O       -1.6349984068    0.8604804260   -1.5952678658
H       -4.2674067959    5.3571727653    1.8667772786
H       -4.2699834043    3.6545544453    3.6724467201
H       -2.9672195168    4.9463714906   -0.2072662670
H       -3.0146979743    1.5630967539    3.4067768716
H       -1.6699416680    2.9100362181   -0.4767379124
H       -1.5371484417    0.2495133501    2.2979194272
H        2.3037853205    0.2739246108   -0.8452602865
H        2.1500847519   -1.2033280346   -1.8175858935
H        0.9889890810    0.9660421193   -3.5791118927
H       -0.5853741327    0.1432145691   -3.6320317892
H        0.8928248320   -0.8120585840   -3.6700580390
H        1.7965769391   -2.0536579163    0.4051610825
28   

C       -3.7688896195    4.4410152322    1.7723312473
C       -3.6505730473    3.5343329437    2.8238484635
C       -3.1172835411    4.1831994465    0.5664787460
C       -2.8946895178    2.3689738541    2.6616703790
C       -2.3476373360    3.0235639220    0.4105090393
C       -2.2323895424    2.0782602958    1.4507653261
C       -0.6758792316    0.2143017146    0.4516183265
C        0.1519834316   -0.9018233709    0.8483080173
C       -0.6348871279    0.4707834717   -1.0192342357
C       -1.4418727712    0.8525603615    1.3820495918
C        1.6040742950   -0.5582597351   -1.0857451174
C        0.5110987644    0.1856640168   -3.2087374070
N        1.1552335120   -1.3475202745    0.0348899165
N        0.4763874554    0.0628609313   -1.7536942424
O        0.0349545351   -1.4588448686    1.9264110958
O       -1.6121567640    0.9055752288   -1.6084636425
H       -4.3585833272    5.3428283742    1.8927607483
H       -4.1442286215    3.7324593344    3.7685594442
H       -3.2004570320    4.8867656277   -0.2540057171
H       -2.8238647153    1.6859178626    3.5007838304
H       -1.8364341282    2.9106043801   -0.5319629062
H       -1.4251951825    0.3604684871    2.3492095278
H        2.3026672029    0.2126583136   -0.7427138195
H        2.1322687738   -1.2121048676   -1.7879260374
H        1.1181144760    1.0493631064   -3.4974233467
H       -0.4911299719    0.3092982849   -3.6312235620
H        0.9382839093   -0.7173365875   -3.6561096011
H        1.6765925134   -2.1414676051    0.3862519330
28   

C       -3.8328086642    4.4480507990    1.8168568371
C       -3.5650805576    3.6196344283    2.9039675469
C       -3.2878833856    4.1413777245    0.5708981068
C       -2.7678963916    2.4828151810    2.7380871790
C       -2.4769834178    3.0108988830    0.4091980362
C       -2.2101927369    2.1404493356    1.4873272445
C       -0.6975305456    0.2311095879    0.4826879803
C        0.0858791162   -0.9159923509    0.8798711764
C       -0.5959032775    0.5240289068   -0.9781492033
C       -1.3785390157    0.9417304749    1.4277949484
C        1.6183880844   -0.5623150487   -0.9885641696
C        0.6448637827    0.2954141644   -3.1226523857
N        1.1017519695   -1.3718764768    0.0880513668
N        0.5380317674    0.1164963681   -1.6773873649
O       -0.0734526863   -1.4844295693    1.9465179832
O       -1.5594127139    0.9328599166   -1.6057767481
H       -4.4556793824    5.3269445257    1.9397964549
H       -3.9754098870    3.8558757841    3.8793072998
H       -3.4872812114    4.7842937014   -0.2788833852
H       -2.5834771594    1.8620543520    3.6077892380
H       -2.0624616706    2.8698328152   -0.5737337459
H       -1.2967833192    0.4949666714    2.4134751067
H        2.3299139946    0.1721189478   -0.5960930639
H        2.1474256399   -1.2122618001   -1.6939990267
H        1.6268949776    0.7059241161   -3.3775898698
H       -0.1069934975    0.9938312521   -3.5038269122
H        0.5130976448   -0.6643399169   -3.6320056016
H        1.5879063817   -2.1889619645    0.4368592508
28   

C       -3.8683247751    4.3962670295    1.8331930280
C       -3.2049896233    3.8326914467    2.9200537314
C       -3.7183454034    3.8269868001    0.5701197631
C       -2.3801338404    2.7184067346    2.7360059768
C       -2.8993633136    2.7055218809    0.3892533775
C       -2.1802111503    2.1379666805    1.4640320951
C       -0.7076732070    0.2076594637    0.4350667388
C       -0.0584870336   -1.0257283461    0.8292366808
C       -0.5410974475    0.5520283975   -1.0081595666
C       -1.3050384471    0.9713541738    1.3974625175
C        1.3114726550   -1.0674417152   -1.1912676495
C        0.5009946055    0.1334194400   -3.2135698422
N        0.7774952294   -1.6966756605   -0.0144850453
N        0.3340570814   -0.1897623676   -1.7997164949
O       -0.2148991631   -1.5238059249    1.9311006324
O       -1.0174741691    1.5551853648   -1.5075245927
H       -4.5067156461    5.2617665479    1.9702894067
H       -3.3284175982    4.2579188571    3.9096728148
H       -4.2505460898    4.2433894843   -0.2775762658
H       -1.8810578702    2.3102294252    3.6077297706
H       -2.9098495123    2.2811040154   -0.6000293456
H       -1.0799045763    0.6227046994    2.4001839675
H        2.2057538037   -0.4919501823   -0.9264672937
H        1.6013231816   -1.8436111473   -1.9071913611
H        1.2148755507    0.9557440630   -3.3287978432
H       -0.4533628351    0.4294860252   -3.6611237098
H        0.8681300075   -0.7368106318   -3.7663644586
H        1.1716527366   -2.5479218020    0.3670730703
28   

C       -3.9609394043    4.2912162075    1.7281811212
C       -3.2507617316    3.8344857792    2.8369996940
C       -3.7583835375    3.6886475866    0.4866289509
C       -2.3319905305    2.7892017414    2.6979986090
C       -2.8448828474    2.6359172937    0.3510252229
C       -2.0922747126    2.1753871305    1.4509623492
C       -0.5941193530    0.2612937064    0.4442298619
C        0.0026078262   -0.9920154554    0.8484158021
C       -0.3536808879    0.6293516613   -0.9810754992
C       -1.1377057581    1.0732784636    1.4022842037
C        1.2804066530   -1.2110691319   -1.2351715260
C        0.6425173748    0.1810695407   -3.1945292735
N        0.7595161504   -1.7416139154   -0.0037046918
N        0.4288583552   -0.1831763481   -1.7974888819
O       -0.1427553805   -1.4491276053    1.9693248970
O       -0.6994561772    1.7100269359   -1.4303200165
H       -4.6725726513    5.1025406461    1.8318127286
H       -3.4115969740    4.2884427440    3.8083134321
H       -4.3181118883    4.0278254768   -0.3774984938
H       -1.7983728736    2.4573142806    3.5815276620
H       -2.7798254586    2.1736701907   -0.6220683867
H       -0.8755821961    0.7688644580    2.4105410725
H        2.2780562252   -0.7947698225   -1.0557995645
H        1.3752890317   -2.0308510540   -1.9548995783
H        1.4053257631    0.9634435695   -3.2661694619
H       -0.2854196546    0.5490042450   -3.6443913162
H        0.9700519013   -0.6875111502   -3.7743478029
H        1.1130192952   -2.6008607945    0.3994170002
28   

C       -4.0350161280    4.2364313228    1.7340109984
C       -3.2644769707    3.8669914505    2.8361752585
C       -3.8237756849    3.6104731446    0.5047175010
C       -2.2802137178    2.8818789781    2.7040536550
C       -2.8453410435    2.6170197494    0.3766736249
C       -2.0423574250    2.2416202414    1.4715588177
C       -0.5770280419    0.3297687022    0.4469267067
C       -0.0283224733   -0.9419351493    0.8492742123
C       -0.2813660145    0.7185872075   -0.9620420450
C       -1.0286584283    1.1963826025    1.4095529631
C        1.1727605889   -1.2685013001   -1.2756376163
C        0.7239123065    0.2778100310   -3.1710540953
N        0.6679597373   -1.7387096539   -0.0117203538
N        0.4544952968   -0.1210455258   -1.7933087795
O       -0.1604012019   -1.3725034146    1.9821036509
O       -0.5710732558    1.8289654061   -1.3813121335
H       -4.7974455788    5.0008151889    1.8330765852
H       -3.4299564763    4.3415151533    3.7967940193
H       -4.4235713686    3.8876497840   -0.3545927363
H       -1.7000672210    2.6130912585    3.5796098021
H       -2.7479318725    2.1351701501   -0.5859532130
H       -0.7052253826    0.9321184520    2.4114498366
H        2.2296701937   -1.0037145838   -1.1596961922
H        1.1025001307   -2.0858683631   -2.0009092593
H        1.5521486705    0.9934245535   -3.1998019343
H       -0.1606630143    0.7408366287   -3.6205393882
H        0.9866525948   -0.5925799756   -3.7804805946
H        0.9990718999   -2.6010145923    0.4038819447
28   

C       -4.0936530874    4.1695518683    1.7689000216
C       -3.2626842610    3.8817955498    2.8524032744
C       -3.8764915096    3.5348609220    0.5444718460
C       -2.2144091147    2.9665750225    2.7078499214
C       -2.8354782510    2.6090910908    0.4052433632
C       -1.9805131175    2.3127023388    1.4830551351
C       -0.5511876252    0.4046177143    0.4365775974
C       -0.0494501793   -0.8768804559    0.8598789632
C       -0.1977732626    0.7804821995   -0.9624482624
C       -0.9062021502    1.3337567770    1.3879375061
C        1.0989635170   -1.3183671899   -1.2809347097
C        0.8521373160    0.3130080863   -3.1436210429
N        0.6049945377   -1.7214683608    0.0114427402
N        0.5171648224   -0.0881379946   -1.7810838788
O       -0.1757599433   -1.2683181886    2.0073033924
O       -0.4590730538    1.8974271899   -1.3855357983
H       -4.9053076433    4.8799673309    1.8780777938
H       -3.4315421664    4.3649073250    3.8081009615
H       -4.5171716815    3.7551810696   -0.3016709436
H       -1.5873953358    2.7569437564    3.5670433807
H       -2.7106561348    2.1229011287   -0.5534655966
H       -0.5098255233    1.1198437011    2.3755886166
H        2.1854463631   -1.1922381644   -1.2165701575
H        0.8898629536   -2.1212652195   -1.9955240913
H        1.7158799683    0.9857674807   -3.1356358845
H        0.0072683819    0.8247538425   -3.6161784281
H        1.0916433976   -0.5621212967   -3.7559184446
H        0.9201370360   -2.5766141584    0.4535442190
28   

C       -4.1589138738    4.1029264301    1.8555197354
C       -3.2551376235    3.8855256677    2.8974456098
C       -3.9647152535    3.4672981379    0.6270857509
C       -2.1583641398    3.0371532847    2.7087190467
C       -2.8758969074    2.6065373309    0.4451623715
C       -1.9552712106    2.3779487411    1.4824790095
C       -0.5755508761    0.4715813806    0.3902398747
C       -0.1347919941   -0.8180911059    0.8489460007
C       -0.1540982633    0.8131910850   -0.9990714067
C       -0.8344180784    1.4648461545    1.3182076623
C        1.0425150091   -1.3533869068   -1.2568475476
C        0.9807611372    0.2928834904   -3.1244728835
N        0.5011967572   -1.7072164583    0.0320051178
N        0.5693307692   -0.0848972383   -1.7763774947
O       -0.2816037415   -1.1681189773    2.0070183424
O       -0.4028569717    1.9220533355   -1.4514911345
H       -5.0077148805    4.7619109211    1.9993022501
H       -3.4054621253    4.3709916892    3.8550033542
H       -4.6578154156    3.6390001419   -0.1884520148
H       -1.4738680004    2.8785658691    3.5342557458
H       -2.7478440675    2.1233845738   -0.5161995000
H       -0.3510410197    1.3019888601    2.2763579305
H        2.1344839992   -1.3129677835   -1.1767105822
H        0.7812774140   -2.1429376038   -1.9691607617
H        1.8703010945    0.9296315432   -3.0811717585
H        0.1797924722    0.8350821476   -3.6378190417
H        1.2114377617   -0.5954424829   -3.7209721306
H        0.7869492804   -2.5552315916    0.5067103162
28   

C       -4.1906605426    4.0048399301    1.9649217114
C       -3.1979206871    3.8690928563    2.9383933067
C       -4.0404714308    3.3714344192    0.7286578413
C       -2.0566838679    3.1030425085    2.6744264299
C       -2.9063258282    2.5919990263    0.4728280711
C       -1.9011346043    2.4442260330    1.4419606516
C       -0.5181760663    0.5828847507    0.2702367871
C       -0.1451690812   -0.7114966803    0.7722593701
C        0.0133261744    0.8878462331   -1.0885083576
C       -0.7377236501    1.6154604011    1.1802476729
C        0.9676118349   -1.3987030417   -1.3317523642
C        1.2606382517    0.2993382013   -3.1310249373
N        0.4624979364   -1.6547642476   -0.0050703629
N        0.7134427300   -0.0596179477   -1.8267444786
O       -0.3096690800   -1.0115476285    1.9418274985
O       -0.1432956882    2.0101982044   -1.5491961502
H       -5.0737568261    4.6002880742    2.1674282824
H       -3.3135744983    4.3538317158    3.9011053062
H       -4.8018130272    3.4835773739   -0.0347407197
H       -1.3016681785    3.0049896995    3.4461043394
H       -2.7984933340    2.1117092879   -0.4934872353
H       -0.1573070512    1.5115642742    2.0914231376
H        2.0509210053   -1.5623650168   -1.3217667559
H        0.5194348550   -2.1206716335   -2.0221846803
H        2.1995317064    0.8484146356   -3.0067354623
H        0.5552504981    0.9219280224   -3.6913715737
H        1.4534051426   -0.5973332406   -3.7285745869
H        0.7325344999   -2.4844863743    0.5095190883
28   

C       -4.2207360489    3.2361097158    2.4829114258
C       -3.0656255665    3.3586936515    3.2590555180
C       -4.1703382166    2.5466705042    1.2686146098
C       -1.8622295649    2.7954029911    2.8194012807
C       -2.9689974216    1.9713404323    0.8378144250
C       -1.8000304753    2.0868046469    1.6072385305
C       -0.2945359970    0.4932011980    0.2095163405
C        0.0591262187   -0.8266237243    0.6666479691
C        0.3055234472    0.8056354534   -1.1339461989
C       -0.5629857322    1.4765270594    1.1682981049
C        0.3263221258   -1.5972673077   -1.6423056284
C        1.4602644379    0.0189681258   -3.1869346870
N        0.4179693491   -1.8050715427   -0.2181847998
N        0.6958873527   -0.2342905352   -1.9708280743
O        0.1036145766   -1.1085946061    1.8512620190
O        0.4835952701    1.9690989469   -1.4631714050
H       -5.1526767062    3.6744250945    2.8219003324
H       -3.1018225628    3.8872137242    4.2049191508
H       -5.0625387798    2.4568277033    0.6595322193
H       -0.9779802676    2.8961101319    3.4385190140
H       -2.9436333886    1.4409715983   -0.1071656163
H        0.2143666540    1.5547748822    1.9212216997
H        1.0024080827   -2.2943103131   -2.1486818345
H       -0.6951872307   -1.8000884002   -1.9818875135
H        2.5281971185   -0.1227447652   -2.9928916461
H        1.3030944485    1.0380945415   -3.5544549480
H        1.1485188873   -0.6662501912   -3.9814903548
H        0.7555446833   -2.6663344158    0.1939859338
