28

C      4.68178   -0.07299   -0.43971
C      4.84080    1.08271   -1.20304
C      2.57590    1.44670   -1.43543
C      1.45269   -1.44108    0.51457
C      2.27152    0.31963   -0.64518
C      1.05653   -0.32839   -0.19560
C      3.36575   -0.45311   -0.16156
C     -0.34673    0.16173   -0.40485
C     -0.83552    0.66987    2.07419
C     -0.77988    1.20756    0.63986
N      3.82304    1.82587   -1.69718
N      2.83448   -1.51695    0.53551
N      0.22392    2.35869    0.62497
O     -1.70546   -0.44455    2.02778
H      5.54379   -0.63613   -0.09477
H      5.84022    1.43334   -1.44808
H      1.78853    2.04228   -1.90538
H      0.84693   -2.19564    0.99958
H     -1.06532   -0.65646   -0.32745
H     -0.46407    0.58825   -1.40829
H      0.17418    0.38226    2.40358
H     -1.21403    1.45487    2.74624
H     -1.74712    1.64034    0.37308
H      3.36759   -2.26648    0.95803
H      0.17201    2.88870   -0.25259
H      1.18642    1.98194    0.68157
H      0.07926    3.02015    1.39767
H     -1.94505   -0.71010    2.93001
