28   

C       -0.9864286782    0.3276391849    0.5217269711
C       -2.0409314508   -0.5895538867    0.6208328330
C       -1.7878431615    1.4789602604    2.5031847721
C       -3.9210815156    0.3917739006    3.5397769427
C       -2.8339437860    0.5554030134    2.5899838125
C       -0.8416017659    1.3739982362    1.4579450381
C       -2.9511009085   -0.4560464677    1.6616721475
C       -4.6570454247   -0.7109892841    3.1426344409
C       -5.7902527125   -1.3931287484    3.7610273493
C        1.2176046171    2.2844764799    2.5629088107
C       -0.2032474138    3.7696736495    1.0968231004
C        0.3123456101    2.3470649446    1.3292566083
N       -4.0551438293   -1.2375650085    1.9771135626
O       -6.1773432009   -2.5078616311    3.4361591648
O       -6.3724294753   -0.7090130083    4.7738596667
H       -0.2745508879    0.2218133152   -0.2887717762
H       -2.1447417552   -1.3924865537   -0.0980131364
H       -1.7103713077    2.2651785731    3.2438484897
H       -4.1130635669    0.9999330544    4.4155258334
H        0.6734032532    2.5783892015    3.4654247978
H        2.0726788626    2.9562444672    2.4385678537
H        1.5962981231    1.2663591877    2.6984302673
H       -0.8001174924    4.1145142953    1.9465118761
H       -0.8254266108    3.7997444080    0.1966666146
H        0.6363178473    4.4580735267    0.9587476554
H        0.9162817351    2.0657636082    0.4599790799
H       -4.3670031151   -2.0780286936    1.4945229406
H       -7.0858063945   -1.2860271100    5.0903314823
28   

C       -0.7191859586    0.1396833700    0.7973137294
C       -1.7288311803   -0.8220902521    0.9347618369
C       -1.8743690771    1.5911752836    2.3631902348
C       -4.0728014776    0.5522982142    3.3072384975
C       -2.8724256292    0.6206333802    2.4923683721
C       -0.7737924904    1.3587283636    1.5067758843
C       -2.7943214319   -0.5599122363    1.7866894318
C       -4.6811426212   -0.6639054536    3.0512502774
C       -5.8041141019   -1.3321243718    3.7081728754
C        1.0248095742    2.6519747796    2.6881143787
C       -0.1997041087    3.6673080123    0.7277087336
C        0.3382454125    2.3751300202    1.3471054276
N       -3.8866215470   -1.3556488612    2.1081931898
O       -5.9340257219   -2.5466154377    3.7764410529
O       -6.6703782578   -0.4929078788    4.3225541638
H        0.1148356316   -0.0670305352    0.1365896027
H       -1.6780489278   -1.7580911213    0.3929857502
H       -1.9509690509    2.5107385543    2.9299745128
H       -4.4115956921    1.2917211274    4.0227850861
H        0.3239162624    3.0859014617    3.4074572578
H        1.8561630659    3.3502654216    2.5496922311
H        1.4227518560    1.7211818765    3.1047643578
H       -0.9495217621    4.1301462441    1.3763748577
H       -0.6598158299    3.4537169420   -0.2423240102
H        0.6158689284    4.3805496960    0.5729957870
H        1.0935902480    1.9681344521    0.6664280063
H       -4.0548681713   -2.3101696132    1.7973851541
H       -7.3324992968   -1.0709995272    4.7340836776
28   

C       -0.7446435901    0.1688238703    0.7513438160
C       -1.7605302637   -0.7880637526    0.8772831814
C       -1.8844594594    1.6035331076    2.3435011398
C       -4.0776410552    0.5582784488    3.2905572827
C       -2.8882219513    0.6374894488    2.4614886312
C       -0.7881751877    1.3768525548    1.4801680129
C       -2.8211255760   -0.5322234066    1.7373478816
C       -4.6936213610   -0.6508097569    3.0216005853
C       -5.7700641126   -1.3410629969    3.7408592179
C        1.0184163523    2.6416309363    2.6820891575
C       -0.1936590168    3.6894126316    0.7311626907
C        0.3327200592    2.3859260305    1.3362179359
N       -3.9123113178   -1.3301824168    2.0580649350
O       -5.7641513957   -2.5341678982    4.0049147043
O       -6.7434660664   -0.5210673159    4.2005196721
H        0.0865263506   -0.0339003410    0.0858057331
H       -1.7165973312   -1.7167859656    0.3225641424
H       -1.9516069267    2.5134681280    2.9267736410
H       -4.3950404431    1.2790301628    4.0342866341
H        0.3197543768    3.0733821979    3.4048879704
H        1.8559376480    3.3344478682    2.5536119771
H        1.4076465272    1.7029076524    3.0890795048
H       -0.9420689101    4.1495724689    1.3833670868
H       -0.6524068551    3.4909847178   -0.2427166049
H        0.6276355193    4.3984024011    0.5876065399
H        1.0867087105    1.9810409057    0.6527846363
H       -4.0698364629   -2.2867603179    1.7493123067
H       -7.3531850218   -1.1000002618    4.6852184236
28   

C       -0.7784933954    0.1823173556    0.7134561158
C       -1.8011938617   -0.7682092671    0.8332151366
C       -1.8947873848    1.6027742777    2.3345660803
C       -4.0827710294    0.5567259811    3.2907124850
C       -2.9049540672    0.6427387468    2.4465620746
C       -0.8067698440    1.3799727603    1.4599487146
C       -2.8531896834   -0.5166602689    1.7051757153
C       -4.7088442116   -0.6439031980    3.0121550669
C       -5.7521873969   -1.3441299480    3.7827636174
C        1.0149046925    2.6165057832    2.6703096417
C       -0.1953974014    3.6952326227    0.7353323224
C        0.3223827212    2.3810085642    1.3240846182
N       -3.9450155415   -1.3135284000    2.0273483004
O       -5.6274556102   -2.4655034200    4.2472446862
O       -6.8406075400   -0.5867159167    4.0502787754
H        0.0466392901   -0.0177792203    0.0396611812
H       -1.7677666130   -1.6897674253    0.2659909344
H       -1.9495247736    2.5038939525    2.9326218513
H       -4.3785141849    1.2627185181    4.0570327631
H        0.3226878841    3.0466542057    3.4002173744
H        1.8578901300    3.3034901679    2.5462353692
H        1.3975582420    1.6702859100    3.0660230062
H       -0.9382932777    4.1536804793    1.3950187488
H       -0.6585852279    3.5112919090   -0.2392818842
H        0.6310202704    4.3993349029    0.5972549423
H        1.0708497324    1.9774666747    0.6338231036
H       -4.1026111422   -2.2667158085    1.7098947325
H       -7.4119098689   -1.1492001930    4.5970365283
28   

C       -0.7908476259    0.1986784584    0.6994376951
C       -1.8157882142   -0.7490511989    0.8221736294
C       -1.8781945479    1.6038986428    2.3531340959
C       -4.0580945481    0.5560275521    3.3260618367
C       -2.8907010859    0.6466170847    2.4679704957
C       -0.8037303649    1.3874761167    1.4603340306
C       -2.8543639806   -0.5038161750    1.7119172959
C       -4.6915295561   -0.6365995712    3.0422404410
C       -5.7436563493   -1.3296083416    3.8250237614
C        1.0375600271    2.6073558798    2.6586773804
C       -0.1944524426    3.7071926934    0.7494604874
C        0.3269254970    2.3861504244    1.3194897825
N       -3.9462182007   -1.2990316859    2.0382063652
O       -5.5533278557   -2.3220947437    4.5044438432
O       -6.9415021078   -0.7022674745    3.8115729401
H        0.0238021005    0.0035349914    0.0115739913
H       -1.7941880209   -1.6635900647    0.2431731328
H       -1.9209528144    2.4982050923    2.9622771839
H       -4.3407755843    1.2558962704    4.1027131345
H        0.3563117812    3.0331281167    3.4013481172
H        1.8810641260    3.2928203827    2.5297976624
H        1.4222700503    1.6564329184    3.0408800958
H       -0.9276616852    4.1615036985    1.4227141746
H       -0.6704833221    3.5335496208   -0.2208505064
H        0.6321455144    4.4102846419    0.6073735912
H        1.0652158066    1.9867473624    0.6159857601
H       -4.1178067572   -2.2412850572    1.6977995979
H       -7.5114816806   -1.2319568716    4.3913180824
28   

C       -0.7409142401    0.1692348381    0.8096637773
C       -1.7429436876   -0.7940622769    0.9852923019
C       -1.7922543935    1.5820404432    2.4807079122
C       -3.9463953113    0.5322985146    3.5148979507
C       -2.7843273757    0.6106043913    2.6464402351
C       -0.7479931578    1.3700431543    1.5513268866
C       -2.7529416944   -0.5516278190    1.9078604071
C       -4.5678453863   -0.6674623433    3.2654296198
C       -5.7607136132   -1.2733499419    3.9280683613
C        1.1326188071    2.6252956820    2.6392258708
C       -0.2263201441    3.7030393173    0.8045556592
C        0.3512399768    2.3915453846    1.3430216349
N       -3.8345557614   -1.3468133023    2.2642350453
O       -5.7207123935   -2.0011817551    4.8993623941
O       -6.9343356722   -0.9422541403    3.3438263696
H        0.0486767542   -0.0208064481    0.0917935259
H       -1.7300731905   -1.7143338380    0.4151914674
H       -1.8323444035    2.4887946700    3.0713634859
H       -4.2577468066    1.2717183526    4.2423081781
H        0.4853202548    3.0345607292    3.4205893210
H        1.9528341742    3.3285141241    2.4642132653
H        1.5580452935    1.6817043615    2.9955537663
H       -0.9255041143    4.1466021113    1.5197864725
H       -0.7562332584    3.5203441473   -0.1357280526
H        0.5781379395    4.4200110226    0.6131511571
H        1.0545509181    2.0063919627    0.5970050670
H       -4.0457810830   -2.2676703354    1.8904854638
H       -7.6149759207   -1.3888951043    3.8716884793
28   

C       -0.7091505706    0.0989726603    0.9149700376
C       -1.6958855144   -0.8699975477    1.1400820492
C       -1.7279258975    1.5385128052    2.5831303598
C       -3.8724605688    0.5156319156    3.6605215502
C       -2.7064848094    0.5626565725    2.7957456807
C       -0.7081099606    1.3161714916    1.6295431950
C       -2.6829407990   -0.6164505167    2.0843019698
C       -4.4942707223   -0.6959417128    3.4531348401
C       -5.8127149268   -1.1594621454    3.9537379226
C        1.2090978626    2.5936724335    2.6136292395
C       -0.2484029972    3.6544969101    0.8461498587
C        0.3666997288    2.3490508807    1.3590341034
N       -3.7653036127   -1.3995155229    2.4650203423
O       -6.0629183745   -1.5071615922    5.0908484677
O       -6.7349364092   -1.2824893262    2.9707007172
H        0.0591526496   -0.0972703959    0.1759909154
H       -1.6940450475   -1.7993818145    0.5848215751
H       -1.7656596442    2.4611982159    3.1487720201
H       -4.2172280143    1.3032077652    4.3192814450
H        0.5959946489    2.9960766494    3.4256165368
H        2.0114720463    3.3058369571    2.3971885287
H        1.6620943680    1.6552364726    2.9489134381
H       -0.9117671969    4.0976565431    1.5948990326
H       -0.8256539161    3.4644435540   -0.0643421311
H        0.5397141331    4.3762379361    0.6097667469
H        1.0343217460    1.9680963766    0.5788625423
H       -4.0319287810   -2.2903723556    2.0555626862
H       -7.5319496316   -1.6131204998    3.4147385559
28   

C       -0.7026142108    0.1241015620    0.9331220976
C       -1.6959483357   -0.8326606901    1.1813488802
C       -1.6877722445    1.5932660625    2.5953805832
C       -3.8328451403    0.6090382497    3.7041335985
C       -2.6733364297    0.6298796949    2.8303043348
C       -0.6811944791    1.3495822610    1.6332196210
C       -2.6694528580   -0.5585533443    2.1339290441
C       -4.4701540256   -0.6024412540    3.5213735214
C       -5.7970469325   -1.0163893167    4.0153400257
C        1.2703352883    2.6043368294    2.5743319156
C       -0.2087934800    3.6824398227    0.8357600844
C        0.3995744852    2.3693156807    1.3375237975
N       -3.7574221338   -1.3242905003    2.5344214109
O       -6.1430820753   -1.0740225870    5.1799780831
O       -6.6002751534   -1.4865295241    3.0304719497
H        0.0548138144   -0.0881313402    0.1873754068
H       -1.7100380254   -1.7683040194    0.6368759317
H       -1.7105669634    2.5230717556    3.1500844232
H       -4.1683909767    1.4122795786    4.3488630418
H        0.6783452937    3.0136859280    3.3984687618
H        2.0763456117    3.3071028294    2.3413366527
H        1.7190820150    1.6607105578    2.9006471371
H       -0.8491786286    4.1364123756    1.5978923816
H       -0.8084069183    3.4990850440   -0.0615406357
H        0.5838624522    4.3928454955    0.5809033986
H        1.0457762684    1.9791276791    0.5440050923
H       -4.0564546230   -2.2052839019    2.1250220434
H       -7.4164808500   -1.7542062293    3.4825316660
28   

C       -0.7185440607    0.1453923466    0.9037194870
C       -1.7220299891   -0.8037929273    1.1402971490
C       -1.6883410411    1.6049383471    2.5833883748
C       -3.8410039543    0.6292100642    3.6840221314
C       -2.6838819442    0.6492314023    2.8068714706
C       -0.6843149577    1.3621724293    1.6184138691
C       -2.6927719563   -0.5310163362    2.0960565972
C       -4.4920259588   -0.5742330348    3.4858596909
C       -5.8049862226   -0.9857437453    3.9977311689
C        1.2761920523    2.5902930291    2.5775796488
C       -0.1866724472    3.6965216812    0.8430124825
C        0.4076502365    2.3736505054    1.3357568739
N       -3.7876623433   -1.2907502679    2.4894491213
O       -6.2134288495   -0.8290928908    5.1335999578
O       -6.5195862199   -1.7063965134    3.0979988439
H        0.0369926881   -0.0660183112    0.1558312331
H       -1.7456116330   -1.7329449966    0.5851344435
H       -1.7011326051    2.5279567823    3.1496622495
H       -4.1645059555    1.4240954272    4.3453100075
H        0.6854241217    2.9990386995    3.4028869825
H        2.0898711687    3.2869513571    2.3530272624
H        1.7145358261    1.6397933206    2.8980181043
H       -0.8260063099    4.1495626723    1.6066015744
H       -0.7843843769    3.5263582966   -0.0581452417
H        0.6133934352    4.4018587630    0.5974159707
H        1.0531126625    1.9839600638    0.5413998252
H       -4.0987289284   -2.1664683373    2.0766472115
H       -7.3379543590   -1.9412215899    3.5645966482
28   

C       -0.7403461530    0.1702186571    0.8629777927
C       -1.7560293362   -0.7710016380    1.0783408612
C       -1.7069704195    1.6167239658    2.5558128984
C       -3.8732862278    0.6455670734    3.6338154792
C       -2.7145173114    0.6690213369    2.7584772551
C       -0.6981539539    1.3762711492    1.5952432975
C       -2.7310574030   -0.5010303195    2.0304741594
C       -4.5359977470   -0.5478606947    3.4122954464
C       -5.8264074028   -0.9786581975    3.9521444807
C        1.2661739756    2.5700633982    2.5905803342
C       -0.1656483293    3.7135197204    0.8542514233
C        0.4085123121    2.3782536853    1.3370395377
N       -3.8337525358   -1.2567726611    2.4094752075
O       -6.2991767223   -0.6495571103    5.0249264598
O       -6.4499803169   -1.8964129491    3.1706993535
H        0.0191163564   -0.0394080854    0.1185750886
H       -1.7847926271   -1.6925675065    0.5109082506
H       -1.7130853342    2.5310412229    3.1361604836
H       -4.1854090118    1.4266869000    4.3168195479
H        0.6715111877    2.9760148393    3.4144629792
H        2.0902137637    3.2597710956    2.3829664659
H        1.6901123914    1.6108390989    2.9043426852
H       -0.8083552524    4.1641384102    1.6164522559
H       -0.7552778006    3.5609687832   -0.0553403387
H        0.6448027949    4.4128143004    0.6260718990
H        1.0581482237    1.9907776350    0.5450073263
H       -4.1430924245   -2.1354218932    2.0007991342
H       -7.2667886859   -2.1120054053    3.6494223761
28   

C       -0.7424727785    0.2164522901    0.8118357851
C       -1.7697025898   -0.7160267453    1.0097439392
C       -1.6911120660    1.6429874682    2.5316584782
C       -3.8616785239    0.6727133667    3.6019861071
C       -2.7097393756    0.7037901025    2.7175967651
C       -0.6855638871    1.4081563445    1.5662875142
C       -2.7413327847   -0.4518956133    1.9669416076
C       -4.5400916984   -0.5068694271    3.3555514157
C       -5.7976079818   -0.9650496595    3.9413779777
C        1.2833786997    2.5726325256    2.5907561884
C       -0.1223272341    3.7447711527    0.8522114599
C        0.4346223400    2.4000104385    1.3281671043
N       -3.8492585273   -1.2042855334    2.3372964635
O       -6.3343521811   -0.5044209199    4.9328328499
O       -6.3297465044   -2.0337498294    3.2951024224
H        0.0149196234    0.0109397486    0.0641870573
H       -1.8089715597   -1.6271676612    0.4263272784
H       -1.6851009738    2.5456398791    3.1300027106
H       -4.1531781258    1.4343713472    4.3155375317
H        0.6865200810    2.9792772348    3.4126785668
H        2.1168217357    3.2546290468    2.3955363320
H        1.6939346732    1.6064316279    2.9008720173
H       -0.7685493312    4.1938256998    1.6123990652
H       -0.7044422051    3.6058825990   -0.0643867429
H        0.6966405015    4.4386376491    0.6383695707
H        1.0875565737    2.0126969741    0.5387748795
H       -4.1548110016   -2.0879506840    1.9361793474
H       -7.1404111090   -2.2396235851    3.7884573909
28   

C       -0.7819191208    0.2344675909    0.7772703096
C       -1.8239802381   -0.6845614200    0.9601146168
C       -1.7179912959    1.6568754388    2.5073607621
C       -3.9008748495    0.7017331899    3.5659915564
C       -2.7512417434    0.7309735463    2.6785079616
C       -0.7109336749    1.4170242703    1.5448249365
C       -2.7965062667   -0.4160178541    1.9151795341
C       -4.5963085683   -0.4641253137    3.3025064698
C       -5.8215452716   -0.9477713425    3.9326791651
C        1.2683499514    2.5402065463    2.5962838980
C       -0.1047018107    3.7504414843    0.8577557830
C        0.4270732412    2.3927632839    1.3253659201
N       -3.9126727083   -1.1597563434    2.2783025158
O       -6.4421167964   -0.3834280649    4.8158495214
O       -6.2440795668   -2.1388345863    3.4365057688
H       -0.0231857483    0.0249660234    0.0320934279
H       -1.8728188132   -1.5897166617    0.3681661073
H       -1.7004001598    2.5519053650    3.1168279818
H       -4.1728552830    1.4494343928    4.3017116811
H        0.6716409189    2.9489503542    3.4172684201
H        2.1141393899    3.2104903443    2.4139889193
H        1.6609887753    1.5648012148    2.9007554161
H       -0.7502608004    4.2022145195    1.6169036746
H       -0.6811956647    3.6292562768   -0.0648792765
H        0.7267776110    4.4333424263    0.6573572765
H        1.0802635375    2.0023522002    0.5377148928
H       -4.2107457338   -2.0525584770    1.8918953934
H       -7.0526760071   -2.3389843805    3.9356192927
28   

C       -0.7994844250    0.2664468261    0.7399889715
C       -1.8510701538   -0.6446478235    0.9072018038
C       -1.7286482235    1.6759067229    2.4843471669
C       -3.9174267811    0.7216335631    3.5317246204
C       -2.7712548552    0.7577622687    2.6400646427
C       -0.7199106666    1.4382644380    1.5230000155
C       -2.8246545272   -0.3787889881    1.8619323755
C       -4.6235517380   -0.4336223820    3.2503700097
C       -5.8116275527   -0.9527619262    3.9237487212
C        1.2641650318    2.5281356622    2.6014425556
C       -0.0832864357    3.7718173046    0.8664825774
C        0.4304723182    2.4036073890    1.3229367619
N       -3.9442370571   -1.1209394531    2.2176017131
O       -6.5321557814   -0.3307616817    4.6834922571
O       -6.1005643550   -2.2349946274    3.5841037108
H       -0.0392442097    0.0584249156   -0.0040667838
H       -1.9052752023   -1.5426836106    0.3049656756
H       -1.7035776641    2.5618344761    3.1067109412
H       -4.1728507743    1.4516286413    4.2907478791
H        0.6663113039    2.9349635424    3.4225372213
H        2.1187045141    3.1907443767    2.4323285092
H        1.6437591950    1.5452645710    2.8983788493
H       -0.7297905536    4.2218834118    1.6258461856
H       -0.6540743432    3.6668001044   -0.0616588072
H        0.7568702124    4.4479476722    0.6798239644
H        1.0852759275    2.0146175206    0.5359208366
H       -4.2287005417   -2.0231258837    1.8430865452
H       -6.9065138540   -2.4450009385    4.0834062372
28   

C       -0.8611227511    0.2760530274    0.7108681149
C       -1.9256331336   -0.6223089020    0.8646609917
C       -1.7672079992    1.6694180555    2.4800414554
C       -3.9605413343    0.7219725115    3.5239744369
C       -2.8222689115    0.7634200768    2.6227914806
C       -0.7635464868    1.4334922327    1.5129710069
C       -2.8938738032   -0.3582961670    1.8253528172
C       -4.6860709524   -0.4163111872    3.2232415021
C       -5.8386814728   -0.9680592267    3.9368512601
C        1.2287634522    2.4897067308    2.6133023246
C       -0.0916870685    3.7614799960    0.8779498034
C        0.4016757404    2.3840781112    1.3286006631
N       -4.0195356382   -1.0938784284    2.1753932430
O       -6.6632245739   -0.3301812168    4.5660720401
O       -5.9841500036   -2.3054895365    3.7582656010
H       -0.1045244897    0.0689415817   -0.0371465713
H       -1.9928721303   -1.5101015137    0.2487113685
H       -1.7275868842    2.5435882837    3.1180641970
H       -4.1913966877    1.4317557273    4.3094532830
H        0.6317485262    2.9003500542    3.4330722937
H        2.0934186095    3.1414088112    2.4534091556
H        1.5929736231    1.5000632141    2.9069819573
H       -0.7389519669    4.2135312747    1.6355133711
H       -0.6563376659    3.6698197082   -0.0553512165
H        0.7579925831    4.4286974272    0.7027158857
H        1.0568993433    1.9916710033    0.5436304261
H       -4.2970983769   -2.0004219833    1.8067884470
H       -6.7867217330   -2.5335792065    4.2549400403
28   

C       -0.8958423378    0.3007602884    0.6803738460
C       -1.9754787012   -0.5815851244    0.8209331235
C       -1.7866140592    1.6909615526    2.4596813713
C       -3.9938153491    0.7631082391    3.4915516086
C       -2.8566058468    0.8006012275    2.5892900867
C       -0.7827525818    1.4483323107    1.4945007649
C       -2.9432798068   -0.3113804187    1.7803981327
C       -4.7373286877   -0.3591525146    3.1767644894
C       -5.8680229722   -0.9306431795    3.9184847065
C        1.2198035700    2.4620433784    2.6171839292
C       -0.0673850753    3.7691337572    0.8830854227
C        0.3998150750    2.3802872811    1.3260814063
N       -4.0786584250   -1.0355728505    2.1227400738
O       -6.8039965676   -0.3109462785    4.3891141453
O       -5.8585759475   -2.2868308946    3.9318109178
H       -0.1391185249    0.0883009466   -0.0660156080
H       -2.0537470435   -1.4627434920    0.1968183050
H       -1.7346282952    2.5571297427    3.1076339894
H       -4.2058435058    1.4601548934    4.2934044361
H        0.6244146001    2.8766219523    3.4361451247
H        2.0964708567    3.1001353954    2.4681315389
H        1.5652304398    1.4641772918    2.9057031751
H       -0.7126228956    4.2256560716    1.6397020185
H       -0.6267191306    3.6941688810   -0.0548922192
H        0.7944432384    4.4235406461    0.7192754254
H        1.0538900277    1.9830019270    0.5426058865
H       -4.3522539353   -1.9441845598    1.7571990194
H       -6.6627483404   -2.5341126803    4.4163119430
28   

C       -0.9225869166    0.3168714575    0.6560110933
C       -2.0107813903   -0.5566393801    0.7845950609
C       -1.8016117674    1.6928543619    2.4521381120
C       -4.0162755048    0.7696781885    3.4731167595
C       -2.8801328242    0.8110476334    2.5698207466
C       -0.7992584074    1.4528974630    1.4846443911
C       -2.9766663776   -0.2892374002    1.7467887189
C       -4.7699200906   -0.3396920674    3.1436219910
C       -5.8940696780   -0.9315941741    3.8932503350
C        1.2088827547    2.4380258385    2.6240800271
C       -0.0601148167    3.7716108764    0.8966667766
C        0.3928479063    2.3749201363    1.3293671375
N       -4.1176801192   -1.0084271067    2.0803709066
O       -6.9383429236   -0.3764327842    4.1773857444
O       -5.7256730351   -2.2544832018    4.1336248604
H       -0.1670962205    0.1063531703   -0.0921827703
H       -2.0965579175   -1.4293549978    0.1497032396
H       -1.7415021531    2.5498869803    3.1114075967
H       -4.2164492497    1.4540910945    4.2885756213
H        0.6146712734    2.8515159526    3.4444261409
H        2.0921289316    3.0689231361    2.4834513074
H        1.5437861192    1.4345429537    2.9054434817
H       -0.7046048216    4.2270055837    1.6546042720
H       -0.6161130045    3.7097399292   -0.0442498560
H        0.8081282029    4.4197675362    0.7421792295
H        1.0462980380    1.9783666634    0.5449924087
H       -4.3916504554   -1.9114081033    1.7025571416
H       -6.5352100102   -2.5280248992    4.5940870099
28   

C       -0.9246662271    0.2879990159    0.6435316943
C       -1.9992228811   -0.6038889017    0.7579317893
C       -1.8371791819    1.6343513894    2.4456403897
C       -4.0482813151    0.6699306682    3.4391282235
C       -2.9026426229    0.7347710236    2.5487020862
C       -0.8247611152    1.4184634172    1.4827323835
C       -2.9750489627   -0.3601572821    1.7163019140
C       -4.7772240244   -0.4476294908    3.0966810807
C       -5.9288305161   -1.0575531594    3.8076997447
C        1.1706269382    2.4090856546    2.6359581066
C       -0.1198623088    3.7598940261    0.9378424458
C        0.3529037258    2.3610658313    1.3418890505
N       -4.1080037071   -1.0988071515    2.0332479153
O       -7.0651516508   -0.6275459136    3.8273465415
O       -5.6286870487   -2.2533799141    4.3661821753
H       -0.1615071498    0.0962400631   -0.1019266119
H       -2.0671957062   -1.4720276827    0.1146686236
H       -1.7950308156    2.4869558386    3.1119824963
H       -4.2708940506    1.3503266545    4.2519072690
H        0.5715626499    2.7958682551    3.4657705788
H        2.0440953493    3.0559106620    2.5071712946
H        1.5209828092    1.4049427032    2.8953461807
H       -0.7673378023    4.1924903684    1.7064673101
H       -0.6782296619    3.7090207748   -0.0023284689
H        0.7394042554    4.4221228830    0.7931251617
H        1.0097705519    1.9895105778    0.5481725558
H       -4.3739691827   -1.9902586880    1.6246564661
H       -6.4573188953   -2.5562478611    4.7703565611
28   

C       -0.8217971848    0.2400553278    0.7080039243
C       -1.8624548501   -0.6893294526    0.8349883270
C       -1.7635747740    1.5568309684    2.5171147842
C       -3.9601724292    0.5444208695    3.4978403269
C       -2.7970240775    0.6217176004    2.6307385510
C       -0.7540436251    1.3752453815    1.5439511295
C       -2.8371049245   -0.4778491684    1.8021158377
C       -4.6512399243   -0.5942563146    3.1606607866
C       -5.9479945077   -1.1089150896    3.6923408626
C        1.2361651557    2.4194873148    2.6491031317
C       -0.1534841399    3.7538739187    1.0173712263
C        0.3808893255    2.3654033694    1.3805931597
N       -3.9578259334   -1.2386883666    2.1092304856
O       -7.0409112536   -0.8423953158    3.2349022983
O       -5.8117750475   -1.9273965350    4.7599944827
H       -0.0626385199    0.0766691556   -0.0482304645
H       -1.9100877024   -1.5565452657    0.1886539070
H       -1.7494537657    2.4160542878    3.1760688053
H       -4.2459137039    1.2614173281    4.2574949277
H        0.6479630001    2.7657303585    3.5042609397
H        2.0800050287    3.1018825058    2.5073002755
H        1.6318841843    1.4244337198    2.8762451415
H       -0.7882444368    4.1521744104    1.8145278069
H       -0.7414926981    3.6996492621    0.0956187308
H        0.6772424817    4.4478585899    0.8555769372
H        1.0243826221    2.0326871712    0.5591636181
H       -4.2438570180   -2.0939233792    1.6412114627
H       -6.7168097671   -2.1770582875    5.0049003232
28   

C       -0.7439268234    0.1572944963    0.7589731678
C       -1.7460409617   -0.8104522181    0.9106052154
C       -1.6912259763    1.4398064336    2.5891279545
C       -3.8513081735    0.3746548659    3.5871694686
C       -2.6873663317    0.4681758202    2.7247144815
C       -0.6992259376    1.2956473031    1.5923540465
C       -2.7061680207   -0.6339572172    1.8992553776
C       -4.5177212593   -0.7890634660    3.2618941724
C       -5.8931500848   -1.1982705473    3.6370293352
C        1.2926292898    2.4020262008    2.6248750004
C       -0.2159164257    3.7073357663    1.0779226245
C        0.3858878162    2.3342706246    1.3939604372
N       -3.8084736552   -1.4199635812    2.2124550011
O       -6.8444208643   -1.1888765178    2.8768579809
O       -6.0403193234   -1.4929456272    4.9485474421
H        0.0001968637    0.0239616682   -0.0178111759
H       -1.7804667833   -1.6758922719    0.2610531835
H       -1.6985569395    2.3030943163    3.2428465024
H       -4.1830505220    1.1176658118    4.3018678530
H        0.7278023088    2.7086569125    3.5104328977
H        2.1011782832    3.1209399470    2.4599424429
H        1.7374163094    1.4202226442    2.8158906196
H       -0.8267151789    4.0713642563    1.9093967652
H       -0.8436981512    3.6449543633    0.1833087936
H        0.5803560322    4.4342340419    0.8894025627
H        1.0041572023    2.0401109292    0.5391351098
H       -4.1146539364   -2.2441457971    1.7024176386
H       -6.9828580355   -1.6956315681    5.0585073715
28   

C       -0.7579474264    0.1641673016    0.7396887163
C       -1.7583630538   -0.8059085719    0.8876099346
C       -1.6846083069    1.4183063767    2.5998614948
C       -3.8344114143    0.3388104427    3.6042226102
C       -2.6790897774    0.4445127446    2.7316974829
C       -0.7040797864    1.2897808425    1.5897014569
C       -2.7072988876   -0.6447489138    1.8895259826
C       -4.5059452877   -0.8219427994    3.2684075845
C       -5.8724523689   -1.2385256555    3.6315096434
C        1.2965751396    2.3858080722    2.6170221542
C       -0.2290759683    3.7081800991    1.1016538887
C        0.3779020165    2.3322041990    1.3942886987
N       -3.8073550811   -1.4343748653    2.2013672219
O       -6.7562650720   -1.4747885331    2.8241463212
O       -6.1182778277   -1.2205469806    4.9616018769
H       -0.0227101530    0.0429192765   -0.0474626595
H       -1.8004762049   -1.6612092140    0.2251769712
H       -1.6849384217    2.2717166137    3.2664756517
H       -4.1605189843    1.0714969786    4.3322064815
H        0.7401527125    2.6806547861    3.5118485818
H        2.1025567139    3.1078358205    2.4531282625
H        1.7444309013    1.4023054600    2.7913717867
H       -0.8324668588    4.0604164303    1.9435601553
H       -0.8653630194    3.6561754873    0.2123962189
H        0.5641615571    4.4388150749    0.9148032276
H        0.9882065299    2.0498687375    0.5298090991
H       -4.1307821211   -2.2420512526    1.6748378263
H       -7.0537229558   -1.4634357180    5.0491599896
28   

C       -0.7797396827    0.1994941514    0.7074102455
C       -1.7853631340   -0.7663915823    0.8463588848
C       -1.6867338365    1.4299943470    2.5930842447
C       -3.8314042601    0.3422325033    3.6013901004
C       -2.6862622197    0.4602430711    2.7164777722
C       -0.7133590864    1.3111167371    1.5747636182
C       -2.7266054195   -0.6152331494    1.8569241819
C       -4.5104849702   -0.8114995654    3.2529426883
C       -5.8466392577   -1.2737979431    3.6447136256
C        1.2973664398    2.3808104367    2.6116564531
C       -0.2233625315    3.7313722833    1.1161788456
C        0.3755524218    2.3482485051    1.3904097615
N       -3.8258832389   -1.4060681606    2.1674920458
O       -6.6656075215   -1.7429806067    2.8685574269
O       -6.1574077035   -1.0353023433    4.9399875841
H       -0.0496316349    0.0854135067   -0.0855647592
H       -1.8363584587   -1.6118454042    0.1719883610
H       -1.6763807162    2.2719572385    3.2740311521
H       -4.1416056130    1.0567191553    4.3541467955
H        0.7452192148    2.6687852873    3.5113446444
H        2.1079427833    3.0991958414    2.4545323175
H        1.7388956963    1.3922628661    2.7731793831
H       -0.8231939671    4.0764338312    1.9635930048
H       -0.8615302384    3.6942886422    0.2275228322
H        0.5740169713    4.4594089630    0.9370361098
H        0.9822690267    2.0725596064    0.5212708149
H       -4.1575910023   -2.2098089136    1.6391413182
H       -7.0704206890   -1.3480446488    5.0422272568
28   

C       -0.8191440127    0.2272829041    0.6715755814
C       -1.8334266761   -0.7304125231    0.8032357410
C       -1.7038810533    1.4415353868    2.5784254796
C       -3.8450890314    0.3524985424    3.5947048168
C       -2.7118443592    0.4796953935    2.6951704989
C       -0.7369689238    1.3263359309    1.5534592503
C       -2.7672377367   -0.5837400436    1.8212100846
C       -4.5345213537   -0.7925578969    3.2365307664
C       -5.8312240936   -1.3082785185    3.6743937770
C        1.2859684344    2.3634036886    2.6014530012
C       -0.2198965286    3.7442846985    1.1185290860
C        0.3639790903    2.3524599853    1.3797401341
N       -3.8663950100   -1.3734384988    2.1341174120
O       -6.5694137211   -1.9889497970    2.9756171731
O       -6.2046985100   -0.9014943432    4.9101953858
H       -0.0935751524    0.1157033247   -0.1259072476
H       -1.8951588949   -1.5677070852    0.1196242206
H       -1.6799570177    2.2729167070    3.2719248381
H       -4.1330547969    1.0473612073    4.3743048715
H        0.7373071238    2.6497573403    3.5037754238
H        2.1048202090    3.0737579398    2.4508282704
H        1.7161416539    1.3684649521    2.7542120490
H       -0.8168988163    4.0870789562    1.9688692833
H       -0.8576473909    3.7224119503    0.2290763607
H        0.5853071509    4.4655159318    0.9470890176
H        0.9680723312    2.0781567301    0.5083377943
H       -4.1998213672   -2.1830206952    1.6150586237
H       -7.0835744951   -1.2893429036    5.0484026439
28   

C       -0.8908750469    0.2300993602    0.6208631009
C       -1.9188717846   -0.7134164454    0.7474832455
C       -1.7422721549    1.4321055715    2.5507067484
C       -3.8808115058    0.3506523709    3.5824137867
C       -2.7634877866    0.4838184982    2.6633752839
C       -0.7848738539    1.3155527180    1.5169105399
C       -2.8420928885   -0.5664228366    1.7749204720
C       -4.5873763992   -0.7815025797    3.2157750104
C       -5.8371037687   -1.3473621823    3.7156515751
C        1.2532109190    2.3147244856    2.5758926200
C       -0.2276557039    3.7250719106    1.0953549262
C        0.3339324387    2.3235396168    1.3518060408
N       -3.9432589104   -1.3506560971    2.0936532102
O       -6.4818163694   -2.2064048139    3.1287967693
O       -6.2681315315   -0.8125035399    4.8822361445
H       -0.1720644852    0.1169880256   -0.1825017748
H       -1.9972044748   -1.5420403504    0.0550505354
H       -1.6982885487    2.2519856382    3.2568098301
H       -4.1368768023    1.0229419538    4.3924194276
H        0.7078635199    2.6074807956    3.4781428411
H        2.0842825452    3.0116603536    2.4295162736
H        1.6663327148    1.3122234379    2.7263187576
H       -0.8229340178    4.0720468478    1.9452363753
H       -0.8622524372    3.7169771797    0.2034207261
H        0.5889702636    4.4348959191    0.9305528318
H        0.9361842038    2.0432380609    0.4810375018
H       -4.2759754489   -2.1706001441    1.5901470959
H       -7.1027098391   -1.2687476223    5.0754389978
28   

C       -0.9242980028    0.2957629888    0.5687671649
C       -1.9643004056   -0.6367168468    0.6774076629
C       -1.7570470402    1.4679611814    2.5249651586
C       -3.8931746733    0.3776671001    3.5531632264
C       -2.7894558703    0.5299500824    2.6205540729
C       -0.8026222547    1.3604744829    1.4874099566
C       -2.8834675485   -0.4997280319    1.7098120397
C       -4.6110752842   -0.7411827637    3.1681267914
C       -5.8023309394   -1.3745190379    3.7238753191
C        1.2434414787    2.3144845508    2.5756830729
C       -0.2071449923    3.7656572843    1.1045745587
C        0.3328213652    2.3532168286    1.3453709958
N       -3.9849730026   -1.2852652108    2.0236562663
O       -6.3227331952   -2.3789757096    3.2558742072
O       -6.3065837708   -0.7606171325    4.8201213937
H       -0.2068647834    0.1888041483   -0.2366680056
H       -2.0524081680   -1.4517030791   -0.0298828311
H       -1.6990274480    2.2699955119    3.2502942678
H       -4.1200567068    1.0162631083    4.3983812834
H        0.6968249897    2.6040323722    3.4781788627
H        2.0859930765    3.0005026452    2.4440083782
H        1.6404522698    1.3040191389    2.7159398048
H       -0.8047040731    4.1081940942    1.9546789925
H       -0.8345238781    3.7787624566    0.2076178542
H        0.6204692403    4.4663499853    0.9564574694
H        0.9375655044    2.0760027825    0.4753420213
H       -4.3057215626   -2.1159644435    1.5298939578
H       -7.0822978456   -1.2878551117    5.0697343392
