16   

C        5.0202479084    1.6401470999    0.1071839117
C        5.3180363512    0.5088485034    0.8043047379
C        3.3530568224    0.2730439071   -0.2439690917
C        2.0817715281   -0.3296392602   -0.7324156873
C        0.4484413111   -2.1483167984   -0.3783324222
N        3.8079575174    1.4804326344   -0.5366910435
N        4.2730226654   -0.3802508643    0.5944219707
N        1.6820491508   -1.4600941398   -0.0278889350
O        1.4027940377    0.0992483820   -1.6584589931
H        5.6395106842    2.5287042985    0.0586346206
H        6.2145056269    0.3527219772    1.3934298569
H        0.2815675230   -2.9939366012    0.2957772703
H        0.5047718835   -2.5284594571   -1.4038526381
H       -0.4041590300   -1.4653029190   -0.2981594773
H        4.2229207915   -1.3464933028    0.9007260425
H        2.1569606519   -1.6884167077    0.8341394370
16   

C        4.9861859584    1.6555187099    0.1830407384
C        5.3487595037    0.4765543080    0.7620562899
C        3.3945584653    0.2445907742   -0.3003654320
C        2.1386443816   -0.3764598304   -0.8111455777
C        0.4182598214   -2.0829145707   -0.3433889015
N        3.7759467857    1.4996846652   -0.4669464992
N        4.3494494279   -0.4407355541    0.4674562364
N        1.6634747682   -1.4061600230   -0.0130035088
O        1.5204517256   -0.0155331179   -1.8059912765
H        5.5583278747    2.5755766405    0.2222543172
H        6.2575178430    0.3089156036    1.3287941208
H        0.1944274898   -2.8501965757    0.4039809073
H        0.4978567806   -2.5663843419   -1.3227990275
H       -0.4097015840   -1.3661429193   -0.3662922793
H        4.3446151714   -1.4356620812    0.6721127559
H        2.0850576113   -1.5385368968    0.8971061718
16   

C        4.9502141205    1.6578512551    0.2657429808
C        5.3902217118    0.4535338644    0.7288995948
C        3.4457440049    0.2042939721   -0.3405223938
C        2.2076256887   -0.4436321883   -0.8725694117
C        0.3995508297   -2.0286114556   -0.3282871323
N        3.7409106592    1.4916661625   -0.3845594771
N        4.4434865453   -0.4912299317    0.3570238925
N        1.6507981480   -1.3610274534   -0.0028496023
O        1.6643696583   -0.1681119298   -1.9359991800
H        5.4670408280    2.6030787263    0.3875658535
H        6.3143515084    0.2887269748    1.2711016288
H        0.1247690248   -2.7264917383    0.4685095748
H        0.5017458314   -2.5925843833   -1.2614655973
H       -0.4046847461   -1.2938317970   -0.4422274631
H        4.4875832062   -1.4991746355    0.4794179038
H        2.0270094421   -1.4126325574    0.9358826734
16   

C        4.8545277282    1.6507164187    0.3420256510
C        5.3947583452    0.4463456263    0.6846904986
C        3.4357236997    0.1489168161   -0.3386515308
C        2.2185095525   -0.5440366870   -0.8785176946
C        0.3433429762   -2.0213272571   -0.2751250156
N        3.6334666034    1.4534098987   -0.2780170278
N        4.5012562353   -0.5299006893    0.2651134024
N        1.5827692643   -1.3330718633    0.0515649966
O        1.7759570255   -0.4091519654   -2.0132888730
H        5.3097512403    2.6170598090    0.5274195753
H        6.3487852601    0.3031588203    1.1791507772
H        0.0234668579   -2.6433906826    0.5664100696
H        0.4858523796   -2.6682445099   -1.1472104702
H       -0.4469956848   -1.2956290970   -0.4947998752
H        4.6096914610   -1.5397577352    0.3090068577
H        1.9042675586   -1.2817788188    1.0111226879
16   

C        4.7886434875    1.6498544781    0.4711231576
C        5.4391556882    0.4656962517    0.6593054152
C        3.4417168515    0.1098057568   -0.2591196885
C        2.2624759378   -0.6234205979   -0.8437305193
C        0.3214998463   -2.0322501793   -0.2965690262
N        3.5462324206    1.4151692403   -0.0926296821
N        4.5935751024   -0.5355403996    0.2010102552
N        1.5021653305   -1.2756062150    0.0902469727
O        2.0410967769   -0.7342343440   -2.0440219231
H        5.1838450472    2.6278515017    0.7216458571
H        6.4335398597    0.3528756716    1.0759144347
H       -0.0944232975   -2.5524521308    0.5717001217
H        0.5779457390   -2.7793211670   -1.0550783674
H       -0.4425789809   -1.3601133257   -0.7013913085
H        4.7767103383   -1.5333236589    0.1315578756
H        1.6964894738   -1.0839256257    1.0666484919
16   

C        4.7727171132    1.6642555772    0.5605659389
C        5.5259011220    0.5273148150    0.5928199883
C        3.4829265686    0.0754595236   -0.1677803410
C        2.3526936735   -0.6885071675   -0.8087449715
C        0.3262433781   -2.0130187936   -0.3508786673
N        3.5081998981    1.3739116539    0.0754409548
N        4.7216673440   -0.5012627159    0.1212278004
N        1.4330520626   -1.1717456771    0.0785593208
O        2.3981723440   -1.1126381108   -1.9582887207
H        5.1139062510    2.6491103855    0.8590005202
H        6.5595169331    0.4640414078    0.9131233428
H       -0.1486466288   -2.4821313794    0.5161858479
H        0.6799572124   -2.8074235193   -1.0164410455
H       -0.4209712918   -1.4115337064   -0.8791564865
H        4.9742924133   -1.4671037949   -0.0736054117
H        1.4716723500   -0.8080941571    1.0246603222
16   

C        4.7297625970    1.6354179781    0.6855157258
C        5.5691677586    0.5677624824    0.5579087948
C        3.5089765870    0.0044672064   -0.0735871949
C        2.4153475424   -0.7846518920   -0.7339572275
C        0.2976872494   -1.9829342955   -0.3348644875
N        3.4558559847    1.2816662283    0.2708790863
N        4.8104367107   -0.4824914405    0.0597744896
N        1.3902791884   -1.1263463176    0.1003718062
O        2.5765247097   -1.3747353238   -1.7973266988
H        5.0176148577    2.6175728557    1.0431693158
H        6.6279320380    0.5651040466    0.7900780131
H       -0.2638932131   -2.3457896986    0.5313390623
H        0.6799169157   -2.8520770065   -0.8803310972
H       -0.3819552256   -1.4236539093   -0.9863467178
H        5.1171027112   -1.4017379422   -0.2507326048
H        1.3513197125   -0.6429558925    0.9918583393
16   

C        4.6986892821    1.5780806383    0.7684729261
C        5.5951043996    0.5841141895    0.5051466844
C        3.5371066733   -0.0768055277   -0.0343336599
C        2.4655950417   -0.8932826960   -0.6819451928
C        0.2638438557   -1.9435646850   -0.3159717293
N        3.4245249438    1.1675542884    0.4095093683
N        4.8737374352   -0.4778924062   -0.0225226271
N        1.3677143191   -1.0938773080    0.1031564785
O        2.6726780210   -1.5929046959   -1.6686628904
H        4.9462083479    2.5490877053    1.1823376180
H        6.6652019112    0.6378359500    0.6691255303
H       -0.3542260869   -2.2100050706    0.5467688958
H        0.6361318161   -2.8699750118   -0.7656451277
H       -0.3586717500   -1.4175555690   -1.0473051585
H        5.2132412448   -1.3526825609   -0.4170784581
H        1.3001836129   -0.5138882627    0.9340180263
16   

C        4.6763924068    1.5234275672    0.8343518296
C        5.6090417929    0.6081801154    0.4423751301
C        3.5610353481   -0.1427786646   -0.0108016826
C        2.5035071606   -0.9922977241   -0.6243145789
C        0.2343889828   -1.9000180508   -0.2871975285
N        3.4060102789    1.0583554817    0.5317606062
N        4.9161666265   -0.4593537106   -0.1115533204
N        1.3555431158   -1.0620168944    0.1079048631
O        2.7267728925   -1.7706115729   -1.5467774354
H        4.8950974206    2.4773249467    1.3008863879
H        6.6829308662    0.7168899296    0.5415910640
H       -0.4231618904   -2.0766054676    0.5694043390
H        0.5852464084   -2.8714550782   -0.6509493188
H       -0.3406732206   -1.4096587332   -1.0795446775
H        5.2754531516   -1.2915858740   -0.5752575297
H        1.2843525713   -0.4070040273    0.8816276333
16   

C        4.6660900741    1.4856447249    0.8907275823
C        5.6129699120    0.6490006178    0.3761324209
C        3.5769968610   -0.1703082301   -0.0072538154
C        2.5293508529   -1.0505446598   -0.5840817702
C        0.2050846800   -1.8263280225   -0.2982717839
N        3.4014719723    0.9772487981    0.6364891848
N        4.9360388138   -0.4116288589   -0.2097356849
N        1.3415912743   -1.0011233169    0.0788877280
O        2.7597398670   -1.8855306405   -1.4538917344
H        4.8702448729    2.4138753888    1.4123771070
H        6.6849442986    0.8038296497    0.4187992549
H       -0.4829540189   -1.9268589531    0.5466264859
H        0.5334414198   -2.8300326993   -0.5880794179
H       -0.3289888720   -1.3702824111   -1.1382720025
H        5.3025841424   -1.2027315198   -0.7359139795
H        1.2753973986   -0.2944797347    0.8071695928
16   

C        4.6710269551    1.4244591991    0.8135023514
C        5.6051639773    0.6301313361    0.2153114056
C        3.5719331028   -0.2383075699   -0.0590719385
C        2.5224963279   -1.1632207415   -0.5525045880
C        0.1494499296   -1.7944139205   -0.2922660948
N        3.4075611273    0.8824392189    0.6328224804
N        4.9213793337   -0.4360197060   -0.3521576069
N        1.3064237372   -0.9701807502    0.0213162391
O        2.7491972386   -2.0807331267   -1.3359334446
H        4.8830186999    2.3444208861    1.3465518472
H        6.6730577499    0.8147300459    0.1937718056
H       -0.4982284434   -1.8808911287    0.5854804836
H        0.4554354418   -2.8049523213   -0.5830420291
H       -0.4199393896   -1.3478305628   -1.1137270131
H        5.2765851454   -1.2160515341   -0.9022926728
H        1.2564593097   -0.1981438661    0.6820899593
16   

C        4.6952778907    1.4614792379    0.8046234074
C        5.6166133282    0.7359331895    0.1074238961
C        3.5961947305   -0.1768895304   -0.1130692496
C        2.5577950162   -1.1330819576   -0.5670933840
C        0.1465699734   -1.6661183538   -0.4126899792
N        3.4404956645    0.8883192009    0.6633734561
N        4.9330741001   -0.3158702115   -0.4864278387
N        1.3119505624   -0.8476541869   -0.1107331554
O        2.8009806436   -2.0931339664   -1.2924756850
H        4.9106426296    2.3528740201    1.3829360812
H        6.6762384733    0.9544381291    0.0411575908
H       -0.4049486896   -1.8854657378    0.5067410675
H        0.4359028077   -2.6212957383   -0.8634245369
H       -0.5121275067   -1.1403786274   -1.1110052507
H        5.2829854125   -1.0639534357   -1.0824888410
H        1.2562558523   -0.0387153491    0.5042486365
16   

C        4.6689113869    1.4313237848    0.8024181796
C        5.5721104481    0.7449483025    0.0444467963
C        3.5596424431   -0.1961683269   -0.1222476130
C        2.5285891396   -1.1854084028   -0.5204617882
C        0.0965376810   -1.6102869434   -0.5654098183
N        3.4205677424    0.8363842567    0.7001405841
N        4.8828188904   -0.3021353876   -0.5511654139
N        1.2586465261   -0.8040161030   -0.2252516832
O        2.7861542942   -2.2109260229   -1.1441264653
H        4.8933413682    2.3079815595    1.3995061821
H        6.6244544146    0.9838988926   -0.0575948017
H       -0.1533253526   -2.2799829848    0.2637555464
H        0.2855118638   -2.2119612665   -1.4607547926
H       -0.7611568620   -0.9630924224   -0.7725428298
H        5.2261204305   -1.0407270496   -1.1626358410
H        1.1752384055    0.0849382855    0.2625615095
16   

C        4.6549739828    1.5239315317    0.8331959049
C        5.5412396569    0.8990577985    0.0052895218
C        3.5629827459   -0.1221022534   -0.0793840855
C        2.5629940109   -1.1690732804   -0.4095087915
C        0.1453279932   -1.6182894873   -0.6065862929
N        3.4304608704    0.8752787027    0.7865086100
N        4.8641929113   -0.1613056144   -0.5809264518
N        1.2717681472   -0.7578005937   -0.2817001897
O        2.8608197552   -2.2400100272   -0.9303200286
H        4.8763504724    2.3920826281    1.4437003657
H        6.5756282305    1.1852873963   -0.1464816099
H       -0.0648922473   -2.2945844744    0.2284257140
H        0.3566300046   -2.2128660520   -1.5016057732
H       -0.7444859002   -1.0132408463   -0.8053428452
H        5.2101268111   -0.8804800541   -1.2135245482
H        1.1440872211    0.1639651701    0.1283812018
16   

C        4.6859596504    1.4894020187    0.8837844318
C        5.5132252820    0.9424523325   -0.0530379066
C        3.5535548279   -0.1174133853   -0.0491424296
C        2.5590459430   -1.1873761687   -0.3365048661
C        0.1574082940   -1.6317646131   -0.6845835415
N        3.4760627884    0.8128176236    0.8941469796
N        4.8115594160   -0.0944849967   -0.6521765893
N        1.2668597236   -0.7527567114   -0.3502165672
O        2.8736454794   -2.2851895318   -0.7863834083
H        4.9399106879    2.3202013939    1.5323889747
H        6.5267308478    1.2622698085   -0.2661637216
H       -0.0980749743   -2.2587897521    0.1759573071
H        0.4148634838   -2.2767739583   -1.5312156837
H       -0.7197791097   -1.0403325509   -0.9639996927
H        5.1272354864   -0.7743789169   -1.3412423715
H        1.1136395321    0.1891984583   -0.0009302597
16   

C        4.7337527820    1.4549383668    0.9497593734
C        5.4795377435    0.9874718104   -0.0924257605
C        3.5484611130   -0.1172586434    0.0247179265
C        2.5552748425   -1.2076892152   -0.2175901739
C        0.1852249452   -1.6695572803   -0.7218510566
N        3.5443931865    0.7478720267    1.0295240666
N        4.7449797314   -0.0285481120   -0.6880693152
N        1.2740826509   -0.7672921664   -0.3805686888
O        2.8848983376   -2.3359102851   -0.5703389607
H        5.0316965833    2.2497727686    1.6242014817
H        6.4630634265    1.3438646662   -0.3762305018
H       -0.1248745879   -2.2358452084    0.1625787685
H        0.4931456799   -2.3710600454   -1.5042315765
H       -0.6717737486   -1.1005633870   -1.0948410307
H        5.0165263176   -0.6658717702   -1.4339084237
H        1.0964248848    0.1978659147   -0.1194438046
16   

C        4.7946653879    1.4075729176    1.0216898919
C        5.4382775936    1.0242446695   -0.1183075693
C        3.5459282549   -0.1260865222    0.1188487462
C        2.5397718985   -1.2212609754   -0.0886865250
C        0.2151520160   -1.6959532959   -0.7598295881
N        3.6298413600    0.6723063237    1.1715854794
N        4.6625864034    0.0330124256   -0.7036329545
N        1.2903313059   -0.7783933421   -0.4148611470
O        2.8647609692   -2.3843388992   -0.3044725123
H        5.1474555139    2.1629259008    1.7147874543
H        6.3835600387    1.4183868993   -0.4732502966
H       -0.1639250958   -2.1871850101    0.1424618488
H        0.5672819315   -2.4600494947   -1.4606888465
H       -0.6060346976   -1.1513753683   -1.2356789618
H        4.8733935503   -0.5513104385   -1.5096106324
H        1.1072228916    0.2091027606   -0.2690714374
16   

C        4.8728791841    1.3131097206    1.0789612692
C        5.3811148029    1.0324574217   -0.1554992931
C        3.5580667180   -0.1884563501    0.2217104678
C        2.5165119499   -1.2627034616    0.0398764768
C        0.2412212946   -1.7171027883   -0.7889936513
N        3.7463317865    0.5402931567    1.3076440882
N        4.5591603238    0.0656709779   -0.7184185813
N        1.3287912553   -0.8083404739   -0.4595645859
O        2.7828739936   -2.4595384612    0.0333028915
H        5.2921022234    2.0252747860    1.7807341698
H        6.2690811660    1.4784409902   -0.5885972657
H       -0.2266490000   -2.0922099345    0.1272943831
H        0.6103881726   -2.5658968786   -1.3741687187
H       -0.5163446185   -1.1977838872   -1.3837960642
H        4.6805628517   -0.4415247570   -1.5917125228
H        1.1843758851    0.1956437815   -0.4606319935
16   

C        4.9088921501    1.2293851201    1.0922196652
C        5.2709052480    1.0536164751   -0.2111844463
C        3.5488199585   -0.2649533940    0.2944957795
C        2.4515522293   -1.2848950335    0.1341041782
C        0.2195617006   -1.6764571286   -0.8232271604
N        3.8334757394    0.4108532980    1.3921617092
N        4.4110111607    0.1022550063   -0.7431708350
N        1.3734538840   -0.8261212921   -0.5750923971
O        2.5324680392   -2.4526363821    0.4971756281
H        5.3906482245    1.9049514875    1.7900342701
H        6.0879673908    1.5606888730   -0.7115627790
H       -0.2840357962   -1.9151716005    0.1195717637
H        0.5287449987   -2.6080882136   -1.3087020368
H       -0.4911511375   -1.1657434584   -1.4801533838
H        4.4283269227   -0.3160001350   -1.6698295111
H        1.3389358056    0.1657172682   -0.7822825942
16   

C        5.0027981984    1.1251508638    1.1192752733
C        5.2175211905    1.0620300554   -0.2259892421
C        3.5691913204   -0.3222545370    0.3569981397
C        2.4314409051   -1.2928350116    0.2278915038
C        0.2355060033   -1.6485406187   -0.8276888384
N        3.9686570098    0.2737745894    1.4658413354
N        4.3069833805    0.1468637359   -0.7367204555
N        1.4489899161   -0.8691132509   -0.6365441346
O        2.3280835442   -2.3443319375    0.8487211661
H        5.5557934800    1.7478646326    1.8134236328
H        5.9710864354    1.6208059829   -0.7691924597
H       -0.3311122973   -1.7038640946    0.1079480502
H        0.4830782265   -2.6638199568   -1.1551870840
H       -0.3952061610   -1.1843741845   -1.5920300921
H        4.2226220781   -0.1866517596   -1.6933536462
H        1.5152201613    0.0751385521   -0.9981290803
16   

C        5.1143284596    1.0741159457    1.1294263441
C        5.2033123951    1.1018763033   -0.2306443234
C        3.5879986625   -0.3018244100    0.4075761471
C        2.4358386728   -1.2509323584    0.3205404692
C        0.3008208287   -1.6882439132   -0.8319934037
N        4.1040013460    0.2101701810    1.5112074467
N        4.2351450732    0.2330374115   -0.7153529555
N        1.5228885528   -0.9171695976   -0.6611770699
O        2.2413636380   -2.2006274961    1.0703219931
H        5.7385565017    1.6418843091    1.8101499253
H        5.9128947216    1.6896431286   -0.8017691216
H       -0.3050272446   -1.6469391693    0.0795614317
H        0.5395650725   -2.7337155726   -1.0540577342
H       -0.2881595316   -1.2848954320   -1.6613525804
H        4.0700372824   -0.0402912620   -1.6801900611
H        1.6295685524   -0.0220936492   -1.1225645717
16   

C        5.1720359605    1.0055677873    1.1436782541
C        5.1603091771    1.1350259422   -0.2127061960
C        3.5382372493   -0.2581225233    0.4426320914
C        2.3686705432   -1.1811280171    0.3785961021
C        0.3147059594   -1.7215091526   -0.8782732611
N        4.1632910409    0.1452717391    1.5358146059
N        4.1267150886    0.3374669403   -0.6843134383
N        1.5305477178   -0.9419754838   -0.7000397653
O        2.1020163592   -2.0492032896    1.2016932733
H        5.8664109121    1.4984173647    1.8147471064
H        5.8475962778    1.7416479337   -0.7913100257
H       -0.3404733347   -1.6086720761   -0.0077481066
H        0.5591426436   -2.7814773371   -1.0049267258
H       -0.2255729635   -1.3824566854   -1.7673887353
H        3.8950502425    0.1354180950   -1.6524529757
H        1.6723613369   -0.0962033619   -1.2368020862
16   

C        5.0834910659    1.3611886938   -0.2698330102
C        5.2529341809    0.4072237899    0.6871302537
C        3.2538098348    0.1682860226   -0.2934775001
C        1.8966973811   -0.3547988696   -0.6143295699
C        0.3674707307   -2.2780470153   -0.3637993582
N        3.8459737994    1.2043607713   -0.8645657948
N        4.0992646468   -0.3645240363    0.6950873846
N        1.6456277818   -1.6279538838   -0.1148627204
O        1.0445630829    0.2366357481   -1.2674754968
H        5.8044397849    2.1298518636   -0.5243255903
H        6.1276230826    0.3004183096    1.3184880022
H        0.3575036129   -3.2774918715    0.0815686820
H        0.1933164662   -2.3747234384   -1.4409146127
H       -0.4470809470   -1.6939276889    0.0774416813
H        3.8648489185   -1.1051547719    1.3481334071
H        2.4153102899   -2.1619298153    0.2635766565
16   

C        5.0683571600    1.6191907679    0.0278796888
C        5.2975945746    0.5658742167    0.8594308126
C        3.3389142602    0.3012334834   -0.1957897220
C        2.0515908334   -0.2837419663   -0.6657058408
C        0.4727365765   -2.1720701895   -0.4434735594
N        3.8600386838    1.4424515585   -0.6179987562
N        4.2104456716   -0.2886076940    0.7374377720
N        1.7083713091   -1.4962943763   -0.0755069432
O        1.3159364306    0.2185216910   -1.5080834735
H        5.7322379364    2.4648088551   -0.1119956878
H        6.1743329986    0.4398791234    1.4843482224
H        0.3892960573   -3.1252129664    0.0874379866
H        0.4557408270   -2.3731763018   -1.5200039168
H       -0.3912371314   -1.5510499927   -0.1835467168
H        4.0844726599   -1.1788047502    1.2060890382
H        2.2945979985   -1.8828253563    0.6487861277
