34

C     -2.01504    1.49551    1.44371
C     -1.60688    2.42025    0.47544
C     -1.39473    0.24639    1.49597
C     -0.59873    2.08466   -0.42666
C     -0.36302   -0.10304    0.61376
C      0.03282    0.83012   -0.36194
C      0.55914   -2.03536   -0.67520
C      1.61269   -1.27383   -1.47105
C      0.30790   -1.45776    0.73203
C      1.57395   -1.34347    1.62271
C      2.05015   -3.88504    1.69270
C      1.85601   -2.58037    2.49364
C      3.10671   -2.31557    3.36171
O      2.94587   -3.75946    0.59525
O      0.77673   -2.86443    3.38091
F      2.92979   -1.23944    4.16927
F      4.20865   -2.06938    2.59842
F      3.41045   -3.36163    4.15901
S      1.33260    0.54743   -1.54420
H     -2.81104    1.74219    2.14094
H     -2.08117    3.39623    0.41244
H     -1.71448   -0.48414    2.23754
H     -0.29805    2.79578   -1.19242
H     -0.39265   -2.02257   -1.21702
H      0.89077   -3.07475   -0.62267
H      2.60671   -1.44745   -1.05545
H      1.62187   -1.61977   -2.50756
H     -0.39746   -2.11938    1.24457
H      2.45365   -1.11115    1.02097
H      1.44204   -0.49423    2.30114
H      2.34811   -4.68846    2.37500
H      1.07835   -4.15341    1.27786
H      3.85150   -3.68995    0.93512
H      0.56810   -2.05729    3.88069
