34

C     -2.82356   -1.94044   -1.24893
C     -1.87439   -2.18211    0.94138
C     -2.01533   -0.80897   -1.43136
C     -2.75016   -2.64321   -0.05127
C     -1.15150   -0.42127   -0.38367
C     -1.25839    2.56846   -4.61706
C     -2.06506    3.60788   -3.86764
C      1.21994    0.56543   -0.30848
C      0.64337    1.11453   -1.59373
C     -2.48104    2.16182   -3.83992
C     -0.26433    0.80123   -0.39343
C     -0.81171    1.95694    0.44154
C     -2.10931   -0.09382   -2.75765
N     -1.11112   -1.10488    0.77168
N     -2.29472    1.39988   -2.57824
Cl    -3.72448   -4.05430    0.21815
H     -3.49902   -2.27638   -2.03122
H     -1.79582   -2.70364    1.89301
H     -1.32753    2.52626   -5.69869
H     -0.28334    2.30648   -4.21746
H     -1.62586    4.03332   -2.96929
H     -2.69702    4.29108   -4.42463
H      1.56707   -0.46200   -0.31841
H      1.79695    1.23443    0.32159
H      0.84764    2.15785   -1.82769
H      0.66124    0.44531   -2.44932
H     -3.37634    1.84362   -4.36332
H     -0.12748    2.81041    0.42577
H     -0.93123    1.63334    1.47881
H     -1.79534    2.30717    0.09904
H     -1.21695   -0.20592   -3.37490
H     -2.96530   -0.44904   -3.33321
H     -1.45484    1.73246   -2.07819
H     -3.08814    1.56604   -1.94730
