14   
Generated by ForceBalance from scan.xyz: Frame 1 of 24
C        0.1134359110   -2.0629770714    0.1657801313
C       -1.8065250064    1.3938122493   -0.6209097800
C       -0.2613709239    0.1894602200    0.7280508026
O        0.4349376302    1.2604792354    1.3044938975
O        0.6564373374   -0.8370037642    0.6550208999
O       -0.7296151027    0.4691558714   -0.5787015906
H        0.9060395394   -2.8060222312    0.2673556988
H       -0.1836945350   -1.9766923326   -0.8836559080
H       -0.7539111587   -2.3775541391    0.7642466946
H       -2.1921605279    1.3874309673   -1.6420303307
H       -1.4767680202    2.4140543132   -0.3793827661
H       -2.6173087911    1.1030385102    0.0652040258
H       -1.1343282065   -0.0896742656    1.3539771594
H       -0.2091261201    1.9225940863    1.5973841382
14   
Generated by ForceBalance from scan.xyz: Frame 2 of 24
C        0.1233415912   -2.0612460805    0.1634174936
C       -1.8070511936    1.4007856379   -0.6380827590
C       -0.2711264183    0.1952799711    0.7103451064
O        0.4207602799    1.2992710158    1.2282934731
O        0.6553176253   -0.8263005879    0.6435195182
O       -0.7739274375    0.4269144973   -0.5897671632
H        0.9196147975   -2.7983158742    0.2797643915
H       -0.1668606049   -1.9888095545   -0.8887599313
H       -0.7469145973   -2.3742155720    0.7586813083
H       -2.2105174981    1.3846583074   -1.6521187250
H       -1.4220676076    2.4066708864   -0.4259430870
H       -2.6181433509    1.1645828749    0.0688589296
H       -1.1221498963   -0.0733758733    1.3704147517
H       -0.2022626203    1.8486632810    1.7259675397
14   
Generated by ForceBalance from scan.xyz: Frame 3 of 24
C        0.1239387198   -2.0560864671    0.1693778893
C       -1.8158693568    1.4024645525   -0.6577365410
C       -0.2794231199    0.2073471646    0.6926088872
O        0.4004603834    1.3364710582    1.1722012562
O        0.6536365305   -0.8125014774    0.6301846071
O       -0.7951798367    0.4140589676   -0.6023098065
H        0.9231771483   -2.7890637012    0.2918598431
H       -0.1717749765   -1.9990158178   -0.8821678834
H       -0.7426495313   -2.3643162473    0.7727488439
H       -2.2110491728    1.3897620343   -1.6750149174
H       -1.4169112487    2.4000817755   -0.4386695822
H       -2.6343073375    1.1749991685    0.0434630639
H       -1.1175822310   -0.0569855894    1.3705206030
H       -0.1412213390    1.7618082905    1.8520104631
14   
Generated by ForceBalance from scan.xyz: Frame 4 of 24
C        0.1238407056   -2.0477223854    0.1807599098
C       -1.8307144068    1.4013955303   -0.6755743409
C       -0.2880383014    0.2220670378    0.6766515283
O        0.3704948468    1.3711155355    1.1381835626
O        0.6526527958   -0.7953349437    0.6187136479
O       -0.7991496749    0.4223564523   -0.6163939581
H        0.9262857245   -2.7767824873    0.3062294064
H       -0.1814213546   -2.0064191681   -0.8688896471
H       -0.7365522692   -2.3507486729    0.7958280732
H       -2.2118840819    1.3920951440   -1.6982062740
H       -1.4441403264    2.3988671502   -0.4388710452
H       -2.6541816751    1.1570185225    0.0134524255
H       -1.1221755350   -0.0476387414    1.3573217432
H       -0.0456072626    1.6621261024    1.9618875635
14   
Generated by ForceBalance from scan.xyz: Frame 5 of 24
C        0.1201694397   -2.0376668794    0.1955053952
C       -1.8426760930    1.4038108899   -0.6965601408
C       -0.2955052958    0.2388656241    0.6603572901
O        0.3410393997    1.4004960723    1.1194031079
O        0.6508769677   -0.7777261769    0.6090701908
O       -0.7904157884    0.4450548436   -0.6334291236
H        0.9243774487   -2.7644276384    0.3232334562
H       -0.1952793202   -2.0118176942   -0.8518021514
H       -0.7339807230   -2.3331798589    0.8230227967
H       -2.1988660366    1.4064745659   -1.7281758959
H       -1.4833680533    2.4028608226   -0.4284906192
H       -2.6748973566    1.1258715241   -0.0318365213
H       -1.1326836196   -0.0390840131    1.3342924735
H        0.0837568973    1.5550019977    2.0399507650
14   
Generated by ForceBalance from scan.xyz: Frame 6 of 24
C        0.2615704872   -1.9685124415    0.0462183033
C       -1.9971976979    1.3458007080   -0.6302222316
C       -0.2859389345    0.2630018210    0.5888611328
O        0.2789441777    1.4576009805    1.0548319355
O        0.7284460607   -0.6807664775    0.4513838958
O       -0.8601491089    0.4853256049   -0.6646975152
H        1.1225999508   -2.6371442607    0.0988195237
H       -0.1289796705   -1.9450492414   -0.9756723004
H       -0.5221367763   -2.3379956977    0.7244279880
H       -2.4007652182    1.3656288590   -1.6440304769
H       -1.7165871842    2.3585463500   -0.3239695626
H       -2.7666520339    0.9587915435    0.0546072775
H       -1.0618216387   -0.1033010020    1.2938287002
H        0.2661920439    1.4467115339    2.0239651005
14   
Generated by ForceBalance from scan.xyz: Frame 7 of 24
C        0.2634721852   -1.9573358211    0.0628766365
C       -2.0149216084    1.3466710189   -0.6428141041
C       -0.3065404884    0.2734264809    0.5864936584
O        0.2362215806    1.4688540617    1.0749094929
O        0.7180271742   -0.6634787941    0.4633176732
O       -0.8580313214    0.5111963646   -0.6716754124
H        1.1297514446   -2.6186801480    0.1202004600
H       -0.1238366839   -1.9405615558   -0.9604761415
H       -0.5191698290   -2.3302203518    0.7401980077
H       -2.4005988079    1.3747558288   -1.6633552853
H       -1.7621550655    2.3596676284   -0.3143911731
H       -2.7865490786    0.9310006651    0.0219829598
H       -1.0923026572   -0.1085190629    1.2722652719
H        0.4198129261    1.3519098077    2.0205057857
14   
Generated by ForceBalance from scan.xyz: Frame 8 of 24
C        0.2683135198   -1.9463148687    0.0762388426
C       -2.0300104132    1.3496435596   -0.6537131395
C       -0.3323758038    0.2793458865    0.5910296314
O        0.1902497785    1.4723679505    1.1074207202
O        0.7037592340   -0.6480278364    0.4845251876
O       -0.8608685462    0.5301230944   -0.6731121968
H        1.1414397686   -2.5978428141    0.1403565209
H       -0.1079591566   -1.9298736357   -0.9512080561
H       -0.5170713935   -2.3292361620    0.7442876145
H       -2.4011887979    1.3815571608   -1.6795090906
H       -1.7960320721    2.3631225827   -0.3129600933
H       -2.8047235991    0.9176751627   -0.0034095668
H       -1.1291614493   -0.1181596466    1.2547774061
H        0.5677857063    1.2738693609    1.9797152139
14   
Generated by ForceBalance from scan.xyz: Frame 9 of 24
C        0.2807289541   -1.9315342301    0.0856550499
C       -2.0410571207    1.3567990169   -0.6674139024
C       -0.3608692865    0.2846152406    0.5983137634
O        0.1394546551    1.4738553665    1.1470794724
O        0.6894446363   -0.6285095555    0.5075353805
O       -0.8671362721    0.5435902945   -0.6737543478
H        1.1652893420   -2.5672175101    0.1503245010
H       -0.0879521543   -1.9120971038   -0.9443887585
H       -0.5020925517   -2.3330753623    0.7451698214
H       -2.3996103264    1.3897096776   -1.6976905593
H       -1.8166969631    2.3707749848   -0.3213148297
H       -2.8215177774    0.9195622396   -0.0277330712
H       -1.1680692570   -0.1294276770    1.2382150445
H        0.6998554212    1.2276852424    1.9011530990
14   
Generated by ForceBalance from scan.xyz: Frame 10 of 24
C        0.2827082613   -1.9297328693    0.0928355002
C       -2.0445931713    1.3581563295   -0.6696136489
C       -0.3912359022    0.2754792167    0.6214252778
O        0.0949790798    1.4567979227    1.2022760308
O        0.6674057161   -0.6286937726    0.5435081080
O       -0.8741234617    0.5404420088   -0.6608321524
H        1.1721804331   -2.5570325515    0.1699982859
H       -0.0609005573   -1.8976030410   -0.9453290108
H       -0.5113786184   -2.3473568388    0.7277610887
H       -2.3865905296    1.3982037093   -1.7052671409
H       -1.8213561497    2.3697019038   -0.3149773055
H       -2.8372170619    0.9215664128   -0.0446180403
H       -1.2106698682   -0.1451575004    1.2389086685
H        0.8158759227    1.1997760188    1.8000770640
14   
Generated by ForceBalance from scan.xyz: Frame 11 of 24
C        0.2898845100   -1.9233211967    0.0954498569
C       -2.0422347776    1.3602304810   -0.6721693515
C       -0.4179211818    0.2679789529    0.6492306822
O        0.0519019977    1.4422282141    1.2577104702
O        0.6481945430   -0.6265745881    0.5802070357
O       -0.8803615271    0.5315480410   -0.6452583409
H        1.1857802555   -2.5403809177    0.1798138789
H       -0.0321971078   -1.8741579228   -0.9486876337
H       -0.5114976409   -2.3619667490    0.7059547788
H       -2.3654906180    1.4083326756   -1.7135360078
H       -1.8156965223    2.3682173719   -0.3090399395
H       -2.8507604529    0.9293989468   -0.0635487442
H       -1.2473166878   -0.1543589465    1.2491790998
H        0.9020758238    1.2203866850    1.6713189441
14   
Generated by ForceBalance from scan.xyz: Frame 12 of 24
C        0.2935336934   -1.9037247246    0.0923946852
C       -2.0429180086    1.3625894463   -0.6772661516
C       -0.4410611501    0.2740697590    0.6771996181
O        0.0168128688    1.4426305791    1.3024041034
O        0.6288085088   -0.6158406665    0.6167127555
O       -0.8863553721    0.5281668593   -0.6295679995
H        1.1898492880   -2.5176484581    0.1936436870
H        0.0044913686   -1.8341744253   -0.9599957070
H       -0.5241953118   -2.3583338060    0.6681089605
H       -2.3411765012    1.4211673663   -1.7255418327
H       -1.8204465526    2.3664762102   -0.3001937987
H       -2.8681139977    0.9309887374   -0.0918685298
H       -1.2781464075   -0.1402388637    1.2689049609
H        0.9531811878    1.2941593829    1.5143669668
14   
Generated by ForceBalance from scan.xyz: Frame 13 of 24
C        0.2885613082   -1.8985339957    0.0850923389
C       -2.0347072771    1.3577870433   -0.6753021429
C       -0.4526057125    0.2689992644    0.7067652451
O       -0.0011490073    1.4258913612    1.3507790094
O        0.6129680557   -0.6255537263    0.6516668755
O       -0.8789236368    0.5240199690   -0.6109969983
H        1.1778411770   -2.5198694933    0.2024739895
H        0.0343765656   -1.8035718760   -0.9741394969
H       -0.5498498128   -2.3614544051    0.6230218207
H       -2.3086641733    1.4300505866   -1.7294091111
H       -1.8233776058    2.3570977808   -0.2797362075
H       -2.8732536135    0.9181463683   -0.1153889446
H       -1.2995767954   -0.1326316427    1.2901087817
H        0.9697343947    1.3749702725    1.3587989673
14   
Generated by ForceBalance from scan.xyz: Frame 14 of 24
C        0.2801848491   -1.8995975462    0.0786180489
C       -2.0204500422    1.3540310931   -0.6698636427
C       -0.4511954664    0.2627036350    0.7289378726
O       -0.0060947696    1.4050582871    1.3955759010
O        0.6066237791   -0.6410761704    0.6753173038
O       -0.8582265612    0.5300385584   -0.5952208402
H        1.1588068709   -2.5340963005    0.2061957601
H        0.0513716724   -1.7848337607   -0.9844939615
H       -0.5759148969   -2.3617429495    0.5888930422
H       -2.2700824868    1.4457809550   -1.7285059013
H       -1.8298692053    2.3470019939   -0.2483885558
H       -2.8674471500    0.8947122941   -0.1395241731
H       -1.3065656890   -0.1308252705    1.3033960563
H        0.9468884372    1.4760879695    1.2121118649
14   
Generated by ForceBalance from scan.xyz: Frame 15 of 24
C        0.2693004296   -1.9054982666    0.0740013976
C       -2.0015786538    1.3523399757   -0.6618421237
C       -0.4380470425    0.2568441586    0.7435842801
O        0.0023565575    1.3839965345    1.4335699099
O        0.6091555259   -0.6596303543    0.6884778511
O       -0.8272201546    0.5454188921   -0.5824538101
H        1.1350021769   -2.5567229142    0.2063080779
H        0.0561266029   -1.7773811441   -0.9910431301
H       -0.6012765989   -2.3591666724    0.5677719159
H       -2.2280954563    1.4686423804   -1.7232283450
H       -1.8391306971    2.3366674634   -0.2092154663
H       -2.8520335522    0.8645582752   -0.1640179190
H       -1.3002891206   -0.1335818699    1.3086791108
H        0.8861583437    1.5943838792    1.0832730084
14   
Generated by ForceBalance from scan.xyz: Frame 16 of 24
C        0.2562037910   -1.9136856879    0.0710464044
C       -1.9790822494    1.3518420572   -0.6521390707
C       -0.4110733562    0.2545276493    0.7501689883
O        0.0305737621    1.3649337745    1.4639940896
O        0.6218290822   -0.6784384162    0.6904789657
O       -0.7843819323    0.5738786556   -0.5731545086
H        1.1056511788   -2.5857737631    0.2048840679
H        0.0506246438   -1.7790637206   -0.9950352679
H       -0.6271333725   -2.3496477995    0.5589986375
H       -2.1845603555    1.4991706332   -1.7138980231
H       -1.8558218234    2.3242147697   -0.1623340725
H       -2.8259222340    0.8238611824   -0.1914055540
H       -1.2798260735   -0.1370063436    1.3042161748
H        0.7981584734    1.7189335497    0.9804536951
14   
Generated by ForceBalance from scan.xyz: Frame 17 of 24
C        0.2322301573   -1.9300794961    0.0765705625
C       -1.9637513673    1.3385876603   -0.6436010327
C       -0.3850789808    0.2480788814    0.7554968534
O        0.0662839173    1.3412768320    1.4909413700
O        0.6297967627   -0.7039825097    0.6926183965
O       -0.7421792358    0.6023461556   -0.5630541548
H        1.0663420962   -2.6220690663    0.2052046910
H        0.0235309983   -1.7922133404   -0.9888772192
H       -0.6583992293   -2.3462345708    0.5694450254
H       -2.1478631212    1.5201346998   -1.7039049970
H       -1.8917544022    2.2957624676   -0.1143626323
H       -2.8004747153    0.7617396921   -0.2259723641
H       -1.2628455350   -0.1448970659    1.2948188221
H        0.6792563757    1.8307465701    0.9145889230
14   
Generated by ForceBalance from scan.xyz: Frame 18 of 24
C        0.2032725070   -1.9450641853    0.0832804739
C       -1.9493778669    1.3180807498   -0.6404977588
C       -0.3506867568    0.2472509893    0.7551615351
O        0.1260182267    1.3208467315    1.5072353648
O        0.6407604476   -0.7277336086    0.6879472030
O       -0.6957350533    0.6372003617   -0.5565235868
H        1.0209677720   -2.6580010154    0.2019956347
H       -0.0169463378   -1.8062568036   -0.9801121272
H       -0.6907585034   -2.3372427317    0.5900958351
H       -2.1128854794    1.5389496198   -1.6966320465
H       -1.9404688705    2.2541151317   -0.0691194805
H       -2.7677883675    0.6841181682   -0.2734274916
H       -1.2392908401   -0.1424140828    1.2803491544
H        0.5562176431    1.9292853549    0.8823976785
14   
Generated by ForceBalance from scan.xyz: Frame 19 of 24
C        0.1625309634   -1.9677178929    0.1065715328
C       -1.9201053987    1.2866152874   -0.6460376546
C       -0.3060100255    0.2454842525    0.7607784050
O        0.2177009360    1.2945863547    1.5211505027
O        0.6502744838   -0.7621657378    0.6948358863
O       -0.6359787725    0.6671496420   -0.5460183120
H        0.9626068092   -2.7031832537    0.2052623078
H       -0.0809193020   -1.8253722380   -0.9516089659
H       -0.7285986860   -2.3338534430    0.6377123669
H       -2.0553977697    1.5532330278   -1.6955122127
H       -1.9841473464    2.1934164184   -0.0312788375
H       -2.7170931103    0.5944400872   -0.3434910873
H       -1.2114082553   -0.1248330395    1.2728837581
H        0.4574954191    1.9988248219    0.8968913497
14   
Generated by ForceBalance from scan.xyz: Frame 20 of 24
C        0.1286821672   -1.9546637154    0.0963681906
C       -1.9128063333    1.2569175726   -0.6544581043
C       -0.2600408322    0.2682301638    0.7542885518
O        0.3212030834    1.2864970534    1.5179312067
O        0.6644080289   -0.7644328749    0.6725675413
O       -0.5919225117    0.7240832557   -0.5425758675
H        0.9117426493   -2.7109377870    0.1696223003
H       -0.1399094298   -1.8022634858   -0.9546405521
H       -0.7564518909   -2.2996103041    0.6512071583
H       -2.0452674963    1.5417232798   -1.6995755407
H       -2.0531397874    2.1430367254   -0.0210524285
H       -2.6680628874    0.5062526079   -0.3869861558
H       -1.1757841126   -0.0855862304    1.2621877945
H        0.3604788438    2.0747075549    0.9537695586
14   
Generated by ForceBalance from scan.xyz: Frame 21 of 24
C        0.0666748097   -1.8723151222    0.2313714300
C       -1.8415952913    1.2802709103   -0.5828679758
C       -0.1749669986    0.3722254778    0.8745372357
O        0.4982677873    1.3462994203    1.6200414917
O        0.6810245412   -0.7168750130    0.7971578950
O       -0.4890829944    0.8516950724   -0.4204955115
H        0.8059263896   -2.6727351658    0.2881315741
H       -0.2110472390   -1.7026088626   -0.8150076332
H       -0.8264757931   -2.1676559762    0.8018684011
H       -1.9368155753    1.6195474838   -1.6157916765
H       -2.0939853672    2.1121352122    0.0891156664
H       -2.5464817041    0.4568500296   -0.4087027332
H       -1.1110911131    0.0803528286    1.3864204298
H        0.3799541079    2.1890517718    1.1554098879
14   
Generated by ForceBalance from scan.xyz: Frame 22 of 24
C       -0.1020983203   -1.7958462728    0.1936162544
C       -1.8430811886    1.0713170532   -0.6007052042
C       -0.0945345606    0.4405643746    0.9274727584
O        0.7447985032    1.3120502699    1.6196738619
O        0.6368288318   -0.7335467873    0.7860011028
O       -0.4435048206    1.0194066310   -0.3211419106
H        0.5343924997   -2.6806286504    0.2442942340
H       -0.3385939881   -1.5802550703   -0.8551303360
H       -1.0341066124   -1.9941789760    0.7442289870
H       -1.9467210703    1.5973320724   -1.5515666071
H       -2.3921446761    1.6241833072    0.1734364176
H       -2.2793420100    0.0694917300   -0.6995720416
H       -1.0229938901    0.2375370141    1.4950435712
H        0.5111251109    2.2074010901    1.3291139368
14   
Generated by ForceBalance from scan.xyz: Frame 23 of 24
C        0.0492026182   -2.0592231215    0.1777928832
C       -1.8216275963    1.3207846273   -0.6087304592
C       -0.2248567372    0.1957650570    0.7669463334
O        0.4811004917    1.1891957385    1.4584842669
O        0.6488638302   -0.8688505568    0.6860594434
O       -0.5974969258    0.5999545031   -0.5397001503
H        0.8152685280   -2.8339148704    0.2351182942
H       -0.2695887517   -1.9305962745   -0.8617533619
H       -0.8136441345   -2.3606880034    0.7894156492
H       -2.0707219631    1.4201345504   -1.6667615606
H       -1.7355574811    2.3306031796   -0.1788453792
H       -2.6351428551    0.7875248310   -0.0966906076
H       -1.1457288646   -0.0869477764    1.3160702212
H        0.0142995902    2.0304314000    1.3378232906
14   
Generated by ForceBalance from scan.xyz: Frame 24 of 24
C        0.0919921456   -2.0620713532    0.1703257618
C       -1.8155046903    1.3704128678   -0.6112191680
C       -0.2485389373    0.1898240715    0.7437564161
O        0.4482600369    1.2234551020    1.3839383674
O        0.6552372274   -0.8478290428    0.6644936286
O       -0.6712145363    0.5301349321   -0.5657228685
H        0.8776977613   -2.8148707798    0.2504678616
H       -0.2191312643   -1.9600845570   -0.8740450641
H       -0.7694468217   -2.3748189608    0.7781081898
H       -2.1511685619    1.3956565211   -1.6495678591
H       -1.5840241969    2.3999805333   -0.2993893491
H       -2.6303853845    0.9804185630    0.0170372081
H       -1.1458261538   -0.0990441646    1.3288765692
H       -0.1454346198    1.9855273924    1.4667687710
