29   
Generated by ForceBalance from scan.xyz: Frame 1 of 24
C        1.7018052703   -1.7107950085    0.2447490828
C       -0.2052209896   -4.9317884820    6.1888857737
C        2.5714855290   -2.3448724163    1.1387936401
C        0.8319440701   -0.7200602352    0.7120858341
C        1.0424709428   -4.7272747216    6.7937261469
C       -0.6695176509   -4.0015446671    5.2575720845
C        2.5754134988   -1.9877693884    2.4897814628
C        0.8338732430   -0.3695031849    2.0655226509
C        1.8085813724   -3.6084696314    6.4727539540
C        0.0907429386   -2.8736515757    4.9227682685
C        1.7062134152   -0.9974508021    2.9627989557
C        1.3348511521   -2.6752687224    5.5371640913
C        2.7027200174    0.5998347980    4.6421221464
C        1.7352166435   -0.5637984634    4.4178031006
O        2.1667048811   -1.6081422854    5.3022358299
H        1.6972442937   -1.9907681498   -0.8054995925
H       -0.8016671815   -5.8047238143    6.4388504408
H        3.2438063945   -3.1220217003    0.7839571196
H        0.1485630825   -0.2264058341    0.0257237808
H        1.4199943291   -5.4419072359    7.5208358928
H       -1.6315449848   -4.1501633502    4.7734309101
H        3.2414833234   -2.4872696659    3.1872205771
H        0.1471160638    0.3944792492    2.4263790625
H        2.7755744186   -3.4337648876    6.9359763859
H       -0.2835235961   -2.1839722653    4.1764170118
H        3.6764380989    0.3940547646    4.1901060323
H        2.8357570097    0.7614011405    5.7161390395
H        2.2919817466    1.5168900245    4.2102467153
H        0.7279586676   -0.2471358033    4.7211806505
29   
Generated by ForceBalance from scan.xyz: Frame 2 of 24
C        1.7103373657   -1.7266238938    0.2497164143
C       -0.2091324491   -4.9361954946    6.1826046967
C        2.5716648248   -2.3654130195    1.1486057882
C        0.8468867373   -0.7278901444    0.7116232911
C        1.0358924049   -4.7314979721    6.7929276770
C       -0.6698232347   -4.0049715327    5.2505320407
C        2.5746187384   -2.0057859549    2.4988793225
C        0.8470089349   -0.3747369836    2.0644922162
C        1.8026106259   -3.6118734301    6.4765770779
C        0.0905181336   -2.8758987682    4.9197594474
C        1.7113414579   -1.0074816961    2.9661461537
C        1.3318309061   -2.6780404351    5.5399692798
C        2.7028389129    0.6048292817    4.6443055942
C        1.7389191944   -0.5683424217    4.4189862769
O        2.1634109183   -1.6091530029    5.3123566628
H        1.7073150718   -2.0090904695   -0.7998654873
H       -0.8060311508   -5.8098847294    6.4288608068
H        3.2386974075   -3.1489434373    0.7978668228
H        0.1698199585   -0.2302223856    0.0219018317
H        1.4108874787   -5.4468030227    7.5206787008
H       -1.6296843984   -4.1537375281    4.7621769346
H        3.2348673302   -2.5086709597    3.1994001414
H        0.1653107143    0.3955378149    2.4213323226
H        2.7676064364   -3.4370362810    6.9439106647
H       -0.2812668255   -2.1858255066    4.1725673973
H        3.5909998264    0.5273550013    4.0132537983
H        3.0127849093    0.6119339327    5.6935953373
H        2.1961947987    1.5544496216    4.4507211856
H        0.7297167629   -0.2554124914    4.7189977160
29   
Generated by ForceBalance from scan.xyz: Frame 3 of 24
C        1.7197243677   -1.7379993366    0.2478386880
C       -0.2138293924   -4.9232417073    6.1829016444
C        2.5772585167   -2.3722666078    1.1534535152
C        0.8542842085   -0.7370775197    0.7013361008
C        1.0293364787   -4.7142426267    6.7956375977
C       -0.6735760945   -3.9958132515    5.2466351496
C        2.5739077997   -2.0055314948    2.5019204974
C        0.8483100330   -0.3766760628    2.0523006714
C        1.7949220651   -3.5942766385    6.4778369372
C        0.0859310051   -2.8665647156    4.9143333935
C        1.7090203553   -1.0047517566    2.9607700964
C        1.3251796169   -2.6640322679    5.5370677864
C        2.6904644792    0.6280304016    4.6370624682
C        1.7301837469   -0.5563964361    4.4111312053
O        2.1558143232   -1.5945207297    5.3083941854
H        1.7210967671   -2.0256337490   -0.8003363384
H       -0.8097938268   -5.7972186769    6.4304121103
H        3.2459341041   -3.1575301967    0.8097373054
H        0.1799133801   -0.2431520954    0.0062948462
H        1.4037338735   -5.4265701571    7.5266086847
H       -1.6317957723   -4.1477777144    4.7560395715
H        3.2313507903   -2.5046715934    3.2076341567
H        0.1655112988    0.3958573161    2.4020350578
H        2.7583227245   -3.4163328553    6.9472546506
H       -0.2847966266   -2.1801019758    4.1632953749
H        3.4394397182    0.7038791826    3.8463189340
H        3.2029340278    0.4879768399    5.5929350608
H        2.1372125398    1.5687614358    4.7032067091
H        0.7166214472   -0.2530900818    4.7042767527
29   
Generated by ForceBalance from scan.xyz: Frame 4 of 24
C        1.7316659505   -1.7273833898    0.2252980550
C       -0.2259694536   -4.8663406539    6.2080765787
C        2.5980724187   -2.3391350687    1.1378426403
C        0.8466396911   -0.7395772831    0.6698598485
C        1.0129185823   -4.6420480458    6.8240452002
C       -0.6813525304   -3.9592240540    5.2500493519
C        2.5846974806   -1.9641018359    2.4841042720
C        0.8312220504   -0.3698119703    2.0181808889
C        1.7782834808   -3.5271135519    6.4885862683
C        0.0778577961   -2.8354565165    4.8989795292
C        1.7010003550   -0.9756160807    2.9332666986
C        1.3124645679   -2.6175577848    5.5258760791
C        2.6646250203    0.6757168430    4.6088523386
C        1.7093452858   -0.5173101899    4.3817225004
O        2.1447855548   -1.5536175542    5.2773435025
H        1.7411202585   -2.0222945998   -0.8208196371
H       -0.8218196017   -5.7362434421    6.4698330080
H        3.2821898143   -3.1140651431    0.8011206158
H        0.1645155518   -0.2633867496   -0.0299984673
H        1.3839313981   -5.3382860765    7.5720317408
H       -1.6360077196   -4.1234655715    4.7564864244
H        3.2485605630   -2.4468529629    3.1951384780
H        0.1339607765    0.3930791633    2.3606326832
H        2.7380247277   -3.3372721340    6.9608642575
H       -0.2886312125   -2.1661775721    4.1305288938
H        3.2153549497    0.9283518167    3.7005052805
H        3.3840007491    0.4128802787    5.3882575677
H        2.1175090946    1.5627455717    4.9392921431
H        0.6904237778   -0.2260708174    4.6658893429
29   
Generated by ForceBalance from scan.xyz: Frame 5 of 24
C        1.7557892461   -1.7345566169    0.2270660618
C       -0.2329746881   -4.8788605583    6.2169313874
C        2.6112025754   -2.3538163754    1.1444980094
C        0.8731437116   -0.7418648729    0.6661818249
C        1.0078707523   -4.6580914171    6.8300788446
C       -0.6879687035   -3.9718034115    5.2585215815
C        2.5889051257   -1.9819781864    2.4917986643
C        0.8504321492   -0.3747219708    2.0148166726
C        1.7748973777   -3.5454299025    6.4905671736
C        0.0732716784   -2.8507337507    4.9035520418
C        1.7088000430   -0.9883846666    2.9359070325
C        1.3097681041   -2.6359105851    5.5276262580
C        2.6625530013    0.6532492576    4.6226461944
C        1.7054092937   -0.5339034555    4.3870720248
O        2.1460959929   -1.5766212859    5.2720171667
H        1.7716359117   -2.0272711920   -0.8195843104
H       -0.8310482687   -5.7464269084    6.4813281030
H        3.2934474887   -3.1319491666    0.8113481784
H        0.1993787909   -0.2601513826   -0.0380128477
H        1.3785569865   -5.3541971059    7.5783706198
H       -1.6442622405   -4.1342289840    4.7675564157
H        3.2434410031   -2.4711048802    3.2069151957
H        0.1560370885    0.3927521584    2.3530911225
H        2.7361108586   -3.3572788876    6.9604909443
H       -0.2924926911   -2.1815435069    4.1345046270
H        2.9797159718    1.0909962727    3.6732526015
H        3.5506223724    0.3042282230    5.1542284203
H        2.1813986764    1.4439226388    5.2049503374
H        0.6844378070   -0.2450766116    4.6653741150
29   
Generated by ForceBalance from scan.xyz: Frame 6 of 24
C        1.7711744270   -1.7314582750    0.2204306108
C       -0.2446428928   -4.8374572471    6.2234969658
C        2.6378994545   -2.3249300265    1.1442534397
C        0.8669144834   -0.7541516855    0.6500676021
C        0.9934969979   -4.6091493498    6.8393118561
C       -0.6984870594   -3.9388863531    5.2565534347
C        2.6053478669   -1.9427664353    2.4884430895
C        0.8341800810   -0.3762191607    1.9954329032
C        1.7599552925   -3.4976471033    6.4945941153
C        0.0622010309   -2.8191220978    4.8965164590
C        1.7037082543   -0.9642901053    2.9225976912
C        1.2960543975   -2.5966648767    5.5232471384
C        2.6461045185    0.6788280439    4.6012706451
C        1.6891296396   -0.5009150429    4.3713174465
O        2.1312111329   -1.5383292550    5.2606050731
H        1.7949425813   -2.0323710824   -0.8237561831
H       -0.8416913516   -5.7043168390    6.4924749149
H        3.3370719146   -3.0910162726    0.8183798506
H        0.1842902983   -0.2927967827   -0.0591999676
H        1.3627929836   -5.2988329519    7.5941984521
H       -1.6526744350   -4.1070172686    4.7633931738
H        3.2677272957   -2.4130161579    3.2091027552
H        0.1231587076    0.3792046028    2.3264159026
H        2.7190352905   -3.3039569281    6.9666484214
H       -0.3020297625   -2.1561180020    4.1213933884
H        2.7354883453    1.2740673048    3.6885534052
H        3.6375904692    0.3040348829    4.8657688093
H        2.2754610206    1.3430958885    5.3872323878
H        0.6679223621   -0.2054370949    4.6423073637
29   
Generated by ForceBalance from scan.xyz: Frame 7 of 24
C        1.7832078432   -1.7367285604    0.2163870424
C       -0.2481922735   -4.8277832566    6.2244980523
C        2.6461771057   -2.3260187129    1.1463915688
C        0.8762638609   -0.7586933312    0.6385480273
C        0.9874850710   -4.5942658392    6.8432579026
C       -0.7021388411   -3.9318491510    5.2551315096
C        2.6070648505   -1.9388181981    2.4888789832
C        0.8367500609   -0.3763261180    1.9824408247
C        1.7513603733   -3.4807740935    6.4990462455
C        0.0559208589   -2.8100629210    4.8958791605
C        1.7021404245   -0.9601530577    2.9160784052
C        1.2874996957   -2.5825862443    5.5251597799
C        2.6343031517    0.6832672674    4.5876466922
C        1.6809538973   -0.4929214221    4.3630605602
O        2.1189587644   -1.5211673199    5.2636313464
H        1.8120784597   -2.0412614253   -0.8266254602
H       -0.8431555897   -5.6962076036    6.4930615447
H        3.3475553396   -3.0925879865    0.8265036278
H        0.1969127308   -0.3000728183   -0.0755918549
H        1.3570513444   -5.2816649154    7.6000924202
H       -1.6545025669   -4.1035366757    4.7596782613
H        3.2667959231   -2.4057820648    3.2141381865
H        0.1230239580    0.3790823258    2.3076167680
H        2.7085996237   -3.2834409369    6.9733165649
H       -0.3088445674   -2.1486408051    4.1196488347
H        2.5312038138    1.4061671458    3.7734991675
H        3.6676467809    0.3272247632    4.6038112980
H        2.4044578523    1.1969996811    5.5257737892
H        0.6600784614   -0.1903559050    4.6300071788
29   
Generated by ForceBalance from scan.xyz: Frame 8 of 24
C        1.7895863576   -1.7484850741    0.2166889167
C       -0.2466880190   -4.8201915087    6.2168332885
C        2.6472069476   -2.3356386216    1.1531834392
C        0.8844863984   -0.7654462013    0.6306886376
C        0.9838577055   -4.5795211900    6.8430632183
C       -0.6996358339   -3.9267717718    5.2447194918
C        2.6046761243   -1.9408264724    2.4931519234
C        0.8405104244   -0.3762314641    1.9726218396
C        1.7442307239   -3.4621508097    6.5037631282
C        0.0545138725   -2.8007868821    4.8903796356
C        1.7005979424   -0.9577176794    2.9123134590
C        1.2810790535   -2.5667246082    5.5269966591
C        2.6251893902    0.6952019233    4.5738479363
C        1.6768882304   -0.4830921763    4.3556598611
O        2.1066315968   -1.4990248079    5.2730529778
H        1.8213720091   -2.0584972335   -0.8246276689
H       -0.8383670300   -5.6919772040    6.4817457719
H        3.3471076029   -3.1063022276    0.8400095160
H        0.2096766600   -0.3079604290   -0.0884381875
H        1.3525511808   -5.2649868068    7.6020630595
H       -1.6480405749   -4.1035230547    4.7434840587
H        3.2610289574   -2.4052843633    3.2231890553
H        0.1271509459    0.3821245644    2.2915247335
H        2.6976577091   -3.2598242860    6.9836047130
H       -0.3097201701   -2.1408084510    4.1127456626
H        2.3635690387    1.5160427222    3.9003166313
H        3.6547860229    0.3916839776    4.3639088839
H        2.5612774613    1.0479878195    5.6074096446
H        0.6561022096   -0.1751141733    4.6193065160
29   
Generated by ForceBalance from scan.xyz: Frame 9 of 24
C        1.7934612297   -1.7607609328    0.2175792517
C       -0.2452883935   -4.8118019842    6.2093899060
C        2.6457580769   -2.3472041289    1.1596529243
C        0.8915010628   -0.7715152423    0.6230231278
C        0.9787698380   -4.5632899820    6.8452081262
C       -0.6953074518   -3.9226403070    5.2320607789
C        2.6015576472   -1.9449548626    2.4971255029
C        0.8447754322   -0.3755774596    1.9630870543
C        1.7350394168   -3.4422084199    6.5091750425
C        0.0548745066   -2.7928604403    4.8812526236
C        1.6998198617   -0.9559235365    2.9078259375
C        1.2750803877   -2.5508586276    5.5270652457
C        2.6168922177    0.7140001531    4.5608953925
C        1.6749127227   -0.4725999934    4.3470120876
O        2.0955076454   -1.4774130552    5.2809628351
H        1.8271474998   -2.0764440545   -0.8219596801
H       -0.8342021054   -5.6864459126    6.4710097971
H        3.3427080094   -3.1229788862    0.8525846507
H        0.2212390028   -0.3145930859   -0.1006973718
H        1.3454287865   -5.2452205324    7.6083810730
H       -1.6387175186   -4.1056795250    4.7237113283
H        3.2543941891   -2.4075704238    3.2315744205
H        0.1332201510    0.3867337596    2.2762966652
H        2.6836321479   -3.2337251440    6.9958874404
H       -0.3075270225   -2.1363470550    4.0999452255
H        2.2249218548    1.6063884976    4.0658507059
H        3.6033519077    0.4942131273    4.1417901878
H        2.7382500090    0.9042089098    5.6310673596
H        0.6529191253   -0.1645507473    4.6072003221
29   
Generated by ForceBalance from scan.xyz: Frame 10 of 24
C        1.8031174664   -1.7756818721    0.2259896893
C       -0.2493773971   -4.8185258447    6.2023931965
C        2.6481327746   -2.3659552566    1.1723842403
C        0.9060706603   -0.7797783676    0.6256451204
C        0.9710905960   -4.5691064045    6.8447572515
C       -0.6958446194   -3.9284067752    5.2243507705
C        2.6018126047   -1.9605226573    2.5087136643
C        0.8564324343   -0.3807741841    1.9648308090
C        1.7266494478   -3.4461219325    6.5136967012
C        0.0539015829   -2.7966732347    4.8787369320
C        1.7046284349   -0.9647305446    2.9134439980
C        1.2705389378   -2.5534995225    5.5307946947
C        2.6172023630    0.7194557404    4.5657537613
C        1.6779080391   -0.4760315634    4.3502107033
O        2.0899155515   -1.4772730244    5.2930984512
H        1.8387270832   -2.0937884763   -0.8127324631
H       -0.8381061140   -5.6946293015    6.4595078175
H        3.3408359453   -3.1472035985    0.8695968022
H        0.2415612570   -0.3200757777   -0.1016144408
H        1.3353263954   -5.2515925432    7.6086085450
H       -1.6364089204   -4.1122169248    4.7110329459
H        3.2494247355   -2.4252512804    3.2464426379
H        0.1485872077    0.3865993380    2.2738722408
H        2.6725459109   -3.2369059317    7.0052743419
H       -0.3061517761   -2.1398773641    4.0966716201
H        2.1235207041    1.6563274655    4.2959631021
H        3.5159071865    0.6177375597    3.9504643278
H        2.9370326343    0.7494456192    5.6107169585
H        0.6540213586   -0.1713731406    4.6062707698
29   
Generated by ForceBalance from scan.xyz: Frame 11 of 24
C        1.8125202590   -1.7881599663    0.2237567476
C       -0.2547308162   -4.8045446867    6.2020239791
C        2.6530590314   -2.3738293892    1.1768924950
C        0.9146338449   -0.7897041565    0.6152231117
C        0.9645071949   -4.5518886042    6.8455546630
C       -0.7004354257   -3.9181144784    5.2203676182
C        2.6014622578   -1.9617211480    2.5111404329
C        0.8600062470   -0.3837314897    1.9521373239
C        1.7201780788   -3.4295126329    6.5129566790
C        0.0492124556   -2.7869451623    4.8726482373
C        1.7038945775   -0.9630507887    2.9074941329
C        1.2644051466   -2.5406768388    5.5263991230
C        2.6064931117    0.7417917936    4.5574419041
C        1.6713082336   -0.4650001809    4.3412308607
O        2.0836344481   -1.4645880379    5.2871713090
H        1.8520848865   -2.1115752212   -0.8131849677
H       -0.8430151091   -5.6804127444    6.4609552225
H        3.3465983759   -3.1570426394    0.8811372583
H        0.2530097527   -0.3333961523   -0.1168044402
H        1.3278667407   -5.2318036042    7.6120920273
H       -1.6398344948   -4.1044350489    4.7058173880
H        3.2458670362   -2.4232518751    3.2535742981
H        0.1520554231    0.3863493442    2.2540247747
H        2.6649741342   -3.2179561086    7.0056984455
H       -0.3095907863   -2.1335602237    4.0871653998
H        2.0475028035    1.6807470102    4.5563539638
H        3.3647736479    0.7960342194    3.7720151170
H        3.1278355193    0.6283668682    5.5111351182
H        0.6439712714   -0.1690549220    4.5908944684
29   
Generated by ForceBalance from scan.xyz: Frame 12 of 24
C        1.5261409222   -1.5642451641    0.2250926602
C       -0.1231717624   -4.9086805290    6.1881322150
C        2.4332797845   -2.2130631094    1.0698914662
C        0.6729210792   -0.5870310483    0.7483693790
C        1.1473977248   -4.7082757380    6.7449543899
C       -0.6262227753   -3.9674460887    5.2886355523
C        2.4919202533   -1.8854294617    2.4272991055
C        0.7297606581   -0.2647070092    2.1076701384
C        1.8971529707   -3.5829177166    6.4090007357
C        0.1169284845   -2.8328547966    4.9380546362
C        1.6404199710   -0.9077123209    2.9551893798
C        1.3838142859   -2.6388134172    5.5055520734
C        2.6955400592    0.6831796569    4.6345236886
C        1.7260487208   -0.5001647969    4.4163173410
O        2.2050385847   -1.5676612239    5.2509589014
H        1.4796224697   -1.8223925640   -0.8297113453
H       -0.7069653746   -5.7866611089    6.4500642042
H        3.0929916110   -2.9799574088    0.6716807095
H       -0.0403124022   -0.0823696439    0.1014707799
H        1.5554942699   -5.4312796684    7.4468207578
H       -1.6062844508   -4.1127731480    4.8410690019
H        3.1875100793   -2.3968745184    3.0859789362
H        0.0572252167    0.4901528898    2.5118213303
H        2.8812376085   -3.4112574922    6.8359474546
H       -0.2877988329   -2.1360651518    4.2145410078
H        2.1721408994    1.5559391966    5.0339189445
H        3.1865328799    0.9747882309    3.7036828297
H        3.4652470878    0.3872001921    5.3512894265
H        0.7242032677   -0.2181707234    4.7634976016
29   
Generated by ForceBalance from scan.xyz: Frame 13 of 24
C        1.5464313464   -1.5698770838    0.2193981548
C       -0.1371234876   -4.9074174523    6.2016237520
C        2.4579316697   -2.2104495836    1.0655318415
C        0.6816154626   -0.6020693273    0.7414934647
C        1.1348143402   -4.7091348409    6.7559981922
C       -0.6366883459   -3.9693587196    5.2968001978
C        2.5087004613   -1.8840490982    2.4236907428
C        0.7315805402   -0.2801807638    2.1010009524
C        1.8890549751   -3.5888821024    6.4127418901
C        0.1113979340   -2.8403473503    4.9388689338
C        1.6462714780   -0.9153834188    2.9503235074
C        1.3794715155   -2.6479345184    5.5040600429
C        2.6975867200    0.6646974464    4.6366145251
C        1.7229580519   -0.5104851507    4.4140246975
O        2.2062702441   -1.5836692779    5.2382038148
H        1.5053732439   -1.8270900576   -0.8358647107
H       -0.7246273131   -5.7811164028    6.4695221959
H        3.1269752256   -2.9696323929    0.6680877617
H       -0.0351735009   -0.1043380566    0.0931501753
H        1.5403198283   -5.4295480848    7.4620175306
H       -1.6177338090   -4.1130386361    4.8508638141
H        3.2067715506   -2.3898686858    3.0839973641
H        0.0506471867    0.4679541951    2.5038556607
H        2.8740507921   -3.4188370743    6.8381968908
H       -0.2902660995   -2.1462036804    4.2109982419
H        2.2605503685    1.4148639210    5.3024494057
H        2.9656201147    1.1498505554    3.6963819916
H        3.6022551513    0.2898750113    5.1216951528
H        0.7198580578   -0.2284240887    4.7565961387
29   
Generated by ForceBalance from scan.xyz: Frame 14 of 24
C        1.5647604714   -1.5687237372    0.2111815812
C       -0.1376591946   -4.8898489082    6.2126953519
C        2.4659774356   -2.2095992755    1.0677817857
C        0.6995464824   -0.5951098612    0.7220462206
C        1.1328269578   -4.6839764381    6.7674774913
C       -0.6400653313   -3.9585715259    5.3023606151
C        2.5064643974   -1.8787098928    2.4253427857
C        0.7396496321   -0.2685344406    2.0805480338
C        1.8830514461   -3.5625724803    6.4189549890
C        0.1039383005   -2.8286127021    4.9392723254
C        1.6437782023   -0.9045539438    2.9407702644
C        1.3706860449   -2.6286439688    5.5048247407
C        2.6778634413    0.6745268562    4.6263935719
C        1.7070814825   -0.4958837285    4.4047096741
O        2.1940555478   -1.5633273330    5.2321945178
H        1.5318432277   -1.8297967980   -0.8434289731
H       -0.7221475527   -5.7643110537    6.4846452332
H        3.1354000410   -2.9728813968    0.6789588459
H       -0.0093292582   -0.0966229259    0.0656296269
H        1.5403064772   -5.3990704900    7.4777526299
H       -1.6201209953   -4.1084653244    4.8563079183
H        3.1964905887   -2.3853581981    3.0933689936
H        0.0584771224    0.4841121226    2.4746502233
H        2.8669291016   -3.3863780503    6.8445109196
H       -0.2995246597   -2.1394831642    4.2075605811
H        2.3653939056    1.2754036937    5.4864854768
H        2.7334974915    1.3193986440    3.7474365811
H        3.6694432786    0.2771220043    4.8589194544
H        0.7019600110   -0.2113345821    4.7401175087
29   
Generated by ForceBalance from scan.xyz: Frame 15 of 24
C        1.5780935515   -1.5920858646    0.2221146743
C       -0.1495731702   -4.9184618843    6.2035947511
C        2.4860984014   -2.2275733491    1.0757480797
C        0.7061429806   -0.6264036745    0.7362999735
C        1.1207856780   -4.7215916517    6.7619095544
C       -0.6460692782   -3.9792880487    5.2981144142
C        2.5264791363   -1.8984115706    2.4335437274
C        0.7458567461   -0.3021894469    2.0954362012
C        1.8768624830   -3.6016091426    6.4214636426
C        0.1037058330   -2.8504639815    4.9434953113
C        1.6566047754   -0.9324024973    2.9526209664
C        1.3704430786   -2.6598173414    5.5121519424
C        2.7012496779    0.6282562755    4.6375489300
C        1.7218902309   -0.5275257190    4.4168781892
O        2.1980840030   -1.5959456922    5.2480752624
H        1.5452708930   -1.8514513188   -0.8329216875
H       -0.7385099913   -5.7919057027    6.4691474487
H        3.1606800540   -2.9848642554    0.6841622275
H       -0.0076205774   -0.1322176993    0.0819550284
H        1.5237607740   -5.4428479591    7.4685179462
H       -1.6260802903   -4.1218478615    4.8495581546
H        3.2214642664   -2.4010003686    3.0996796939
H        0.0589709980    0.4436696275    2.4925329715
H        2.8608639024   -3.4325869025    6.8496311886
H       -0.2957309580   -2.1543041631    4.2162587799
H        2.5437093140    1.0768813176    5.6235386632
H        2.5757930986    1.3966118549    3.8712854149
H        3.7257851665    0.2467746559    4.6072232672
H        0.7209161472   -0.2277081546    4.7533204801
29   
Generated by ForceBalance from scan.xyz: Frame 16 of 24
C        1.5883921562   -1.6094600578    0.2329709045
C       -0.1522749046   -4.9267468328    6.1914603627
C        2.4896761407   -2.2489566455    1.0908901621
C        0.7219370884   -0.6358663329    0.7412770260
C        1.1148270233   -4.7304448252    6.7574005906
C       -0.6457908465   -3.9841193077    5.2880017200
C        2.5281411860   -1.9145157814    2.4472930953
C        0.7595098090   -0.3076027900    2.0995961780
C        1.8718825094   -3.6081885431    6.4268945861
C        0.1046713270   -2.8526229073    4.9435179337
C        1.6633056168   -0.9411667215    2.9613423642
C        1.3682974457   -2.6629751787    5.5195402800
C        2.7056369998    0.6222984516    4.6398523052
C        1.7284398176   -0.5325962137    4.4234530758
O        2.1940334864   -1.5948550425    5.2678848553
H        1.5566490346   -1.8720154810   -0.8212997170
H       -0.7410795637   -5.8024844590    6.4496383278
H        3.1597646360   -3.0125819699    0.7039113248
H        0.0140143850   -0.1384958076    0.0830315755
H        1.5150083135   -5.4547676340    7.4624460687
H       -1.6232575596   -4.1257263373    4.8336032934
H        3.2181273768   -2.4191341425    3.1171845727
H        0.0761236461    0.4435870018    2.4925036604
H        2.8535483108   -3.4401233832    6.8608135189
H       -0.2924444725   -2.1529347166    4.2184827309
H        2.7056001849    0.9268308032    5.6906442283
H        2.4220665239    1.4766543106    4.0191608900
H        3.7174934709    0.3126942295    4.3629322613
H        0.7289320410   -0.2241522492    4.7584572489
29   
Generated by ForceBalance from scan.xyz: Frame 17 of 24
C        1.5970648592   -1.6229775774    0.2390241285
C       -0.1562874527   -4.9337154589    6.1845151156
C        2.4899772689   -2.2689124817    1.1011192805
C        0.7386637648   -0.6405233974    0.7435341935
C        1.1066621714   -4.7371411156    6.7595332216
C       -0.6444875576   -3.9900408354    5.2792833755
C        2.5285742327   -1.9320390015    2.4567660251
C        0.7753436051   -0.3104119367    2.1016298475
C        1.8636224004   -3.6132205983    6.4348149847
C        0.1055367854   -2.8565253019    4.9404435688
C        1.6709543994   -0.9502017837    2.9670130885
C        1.3651423125   -2.6670272034    5.5254510706
C        2.7100608401    0.6215908679    4.6424538875
C        1.7368319563   -0.5387530240    4.4271280619
O        2.1905933914   -1.5962672572    5.2846974965
H        1.5657395758   -1.8873275561   -0.8148150551
H       -0.7458942806   -5.8105353261    6.4371323142
H        3.1537064272   -3.0397735342    0.7175741669
H        0.0372792549   -0.1375454798    0.0825748852
H        1.5033109511   -5.4619340823    7.4661107200
H       -1.6187887022   -4.1324344813    4.8184099444
H        3.2129479775   -2.4409462787    3.1292333773
H        0.0972504874    0.4470130631    2.4914737444
H        2.8423425328   -3.4444627351    6.8750789719
H       -0.2884723536   -2.1564108697    4.2142396362
H        2.8753326917    0.7852393314    5.7106623380
H        2.2946590912    1.5337746709    4.2032604041
H        3.6631789553    0.4242677338    4.1439371330
H        0.7375024012   -0.2275033842    4.7609925147
29   
Generated by ForceBalance from scan.xyz: Frame 18 of 24
C        1.6056025956   -1.6366303704    0.2443755949
C       -0.1631229643   -4.9381901796    6.1792746070
C        2.4922979693   -2.2876335469    1.1092604464
C        0.7526259253   -0.6477185959    0.7451537344
C        1.0961414765   -4.7415008356    6.7624290104
C       -0.6447208188   -3.9947836689    5.2703057183
C        2.5309299858   -1.9495745990    2.4644856274
C        0.7880158755   -0.3161237251    2.1030401624
C        1.8556676371   -3.6180498041    6.4421975118
C        0.1085445587   -2.8619034918    4.9362088616
C        1.6780455035   -0.9611179538    2.9703518249
C        1.3643092662   -2.6716677840    5.5290300217
C        2.7133222427    0.6239016674    4.6463913348
C        1.7436110047   -0.5459947054    4.4287966787
O        2.1909760975   -1.6004822049    5.2948242138
H        1.5749376563   -1.9022694879   -0.8091482732
H       -0.7546711680   -5.8147036428    6.4284100432
H        3.1513138063   -3.0636865507    0.7280800396
H        0.0561607930   -0.1410107424    0.0818504048
H        1.4878810071   -5.4660645734    7.4719819123
H       -1.6159227748   -4.1367980219    4.8027973337
H        3.2109807408   -2.4614631218    3.1390592946
H        0.1140463061    0.4460625289    2.4906312099
H        2.8314996854   -3.4496539403    6.8888872054
H       -0.2803574190   -2.1622698804    4.2068222046
H        3.0617524194    0.6383687951    5.6817425821
H        2.1997830580    1.5675851441    4.4366267785
H        3.5614772162    0.5690648541    3.9591031000
H        0.7423084238   -0.2394738125    4.7603987729
29   
Generated by ForceBalance from scan.xyz: Frame 19 of 24
C        1.6143223266   -1.6509475770    0.2415894569
C       -0.1675204675   -4.9238311628    6.1783035990
C        2.4982180259   -2.2956159332    1.1140467306
C        0.7582081130   -0.6601308182    0.7331708123
C        1.0905042492   -4.7232759056    6.7629064921
C       -0.6499066952   -3.9837062797    5.2664336350
C        2.5309477238   -1.9494815538    2.4674659840
C        0.7878728072   -0.3202600054    2.0892008239
C        1.8485629437   -3.5991873693    6.4416550525
C        0.1020661251   -2.8502552476    4.9312664489
C        1.6753114576   -0.9587541731    2.9640205502
C        1.3564792458   -2.6558565150    5.5256566453
C        2.7026194420    0.6475996475    4.6386438977
C        1.7345649779   -0.5321896364    4.4197179752
O        2.1817319574   -1.5835027512    5.2910571192
H        1.5882086694   -1.9229407555   -0.8104312152
H       -0.7575314279   -5.8010681644    6.4285181117
H        3.1597249159   -3.0731798115    0.7402939739
H        0.0635099926   -0.1583991441    0.0642333881
H        1.4825209944   -5.4455729561    7.4746053761
H       -1.6200057828   -4.1287390849    4.7975484482
H        3.2090962146   -2.4564440950    3.1475793989
H        0.1119784835    0.4439999927    2.4692471885
H        2.8233345055   -3.4279341931    6.8895879045
H       -0.2868433298   -2.1535824504    4.1991002897
H        3.2529646545    0.5073211009    5.5715663432
H        2.1439703100    1.5859975932    4.7062625105
H        3.4018742685    0.7527558594    3.8059591016
H        0.7292683595   -0.2329001271    4.7436555755
29   
Generated by ForceBalance from scan.xyz: Frame 20 of 24
C        1.6342512859   -1.6621379137    0.2333399420
C       -0.1773889412   -4.9157279601    6.1888807518
C        2.5177661417   -2.2996825949    1.1111182175
C        0.7702752166   -0.6748780657    0.7187295878
C        1.0808834621   -4.7134939365    6.7722754809
C       -0.6572521165   -3.9811753743    5.2699620972
C        2.5419961194   -1.9504944092    2.4641773606
C        0.7929687129   -0.3313363414    2.0738287877
C        1.8406303371   -3.5929630995    6.4426460846
C        0.0965714740   -2.8515981348    4.9260045827
C        1.6797387905   -0.9627754102    2.9546861696
C        1.3510310088   -2.6551961657    5.5196403791
C        2.6987216936    0.6498104220    4.6356074854
C        1.7290335225   -0.5321595157    4.4109213707
O        2.1806143091   -1.5880962298    5.2749435737
H        1.6142449239   -1.9367993084   -0.8181174265
H       -0.7693654766   -5.7898250423    6.4453744683
H        3.1855618771   -3.0742020068    0.7421994398
H        0.0752937484   -0.1789615071    0.0457216760
H        1.4713968154   -5.4310956629    7.4895302260
H       -1.6274183778   -4.1279739955    4.8017950619
H        3.2191563985   -2.4529040120    3.1485078928
H        0.1121863125    0.4312698198    2.4485604795
H        2.8154125988   -3.4201166454    6.8899341980
H       -0.2903410733   -2.1604539778    4.1875363964
H        3.4487796129    0.3620684545    5.3761019222
H        2.1688664263    1.5294589943    5.0110154284
H        3.2108747679    0.9288761252    3.7124464030
H        0.7199856424   -0.2394720080    4.7269732389
29   
Generated by ForceBalance from scan.xyz: Frame 21 of 24
C        1.6619078910   -1.6595607317    0.2385876844
C       -0.1925330768   -4.9408521199    6.2030615365
C        2.5454899047   -2.2989328887    1.1146076741
C        0.7900583611   -0.6814810146    0.7290188472
C        1.0653082854   -4.7429584536    6.7888325138
C       -0.6645284802   -4.0085709682    5.2776855467
C        2.5617989176   -1.9616672830    2.4710394951
C        0.8057299009   -0.3485327207    2.0866187153
C        1.8326339223   -3.6284999122    6.4558352286
C        0.0973017435   -2.8855792782    4.9299648693
C        1.6923957465   -0.9826683961    2.9660240090
C        1.3510190229   -2.6931756276    5.5263310496
C        2.7043670438    0.6070088665    4.6659854838
C        1.7316906525   -0.5661689912    4.4280407706
O        2.1890717482   -1.6346474596    5.2729694048
H        1.6476929638   -1.9254623156   -0.8152252255
H       -0.7904422155   -5.8099288575    6.4628398864
H        3.2197208399   -3.0659965036    0.7418385993
H        0.0946057772   -0.1843181595    0.0574148631
H        1.4493329074   -5.4588940822    7.5112353891
H       -1.6342133598   -4.1522016077    4.8075364524
H        3.2379419492   -2.4669806123    3.1541226937
H        0.1197593910    0.4079349715    2.4645529758
H        2.8068633475   -3.4586294331    6.9054459687
H       -0.2824358569   -2.1960890745    4.1860665650
H        3.6086340043    0.2167092477    5.1410729160
H        2.2735320540    1.3659383112    5.3239727277
H        3.0075751088    1.0684620321    3.7239341953
H        0.7208118464   -0.2780175094    4.7417250532
29   
Generated by ForceBalance from scan.xyz: Frame 22 of 24
C        1.6790015305   -1.6695398934    0.2413234396
C       -0.2014520323   -4.9465250508    6.2054150036
C        2.5642493616   -2.3025586561    1.1201421035
C        0.7991997562   -0.6966441741    0.7281048686
C        1.0553476767   -4.7479265843    6.7930381797
C       -0.6701166316   -4.0146956575    5.2778419079
C        2.5729440731   -1.9629028902    2.4761165145
C        0.8087244871   -0.3622858086    2.0853138389
C        1.8245524369   -3.6346210454    6.4603047158
C        0.0925384838   -2.8924498160    4.9297053186
C        1.6963017819   -0.9893586115    2.9687881069
C        1.3451542759   -2.7004976275    5.5286151416
C        2.7069648160    0.5863118914    4.6684648685
C        1.7286877000   -0.5737848801    4.4314570949
O        2.1848514135   -1.6436715626    5.2738165696
H        1.6695740517   -1.9364128716   -0.8122967917
H       -0.8005505705   -5.8147997148    6.4652022542
H        3.2448460950   -3.0654364809    0.7503204652
H        0.1026464101   -0.2047146466    0.0537891275
H        1.4374873014   -5.4630126721    7.5172511737
H       -1.6389370583   -4.1583248788    4.8059641247
H        3.2495504309   -2.4637042817    3.1620737739
H        0.1165886100    0.3900544987    2.4602855760
H        2.7980080731   -3.4648553487    6.9116830605
H       -0.2853072507   -2.2034935360    4.1843005002
H        3.6974770546    0.1662603277    4.8681608746
H        2.4125129370    1.1983780443    5.5249040868
H        2.8016154145    1.2053885918    3.7734848956
H        0.7189563508   -0.2770719601    4.7418503676
29   
Generated by ForceBalance from scan.xyz: Frame 23 of 24
C        1.6930389029   -1.6801090662    0.2432126173
C       -0.2053508761   -4.9502287077    6.2044142875
C        2.5727112511   -2.3155617679    1.1259198221
C        0.8152644428   -0.7037225620    0.7265145329
C        1.0496186900   -4.7536573807    6.7966574329
C       -0.6732271499   -4.0182962201    5.2764801238
C        2.5782315092   -1.9750614197    2.4815881200
C        0.8205499209   -0.3684598278    2.0835065672
C        1.8195906141   -3.6399134187    6.4671204309
C        0.0914313555   -2.8960731016    4.9329429610
C        1.7027172433   -0.9984121421    2.9702754806
C        1.3425332199   -2.7049308554    5.5351704699
C        2.7087910535    0.5710254337    4.6681038058
C        1.7314538352   -0.5829784150    4.4327158959
O        2.1816567508   -1.6469943126    5.2840461696
H        1.6864784522   -1.9476157974   -0.8102809925
H       -0.8050691229   -5.8188157873    6.4615735129
H        3.2517873362   -3.0811590651    0.7590082815
H        0.1233306901   -0.2094056737    0.0492351414
H        1.4294292693   -5.4698894965    7.5210011336
H       -1.6408896844   -4.1613697262    4.8019853063
H        3.2509159722   -2.4775618027    3.1702370699
H        0.1291227017    0.3859283257    2.4557616683
H        2.7919118747   -3.4705907701    6.9210746875
H       -0.2843052276   -2.2051738476    4.1882520131
H        3.7317365345    0.1847467770    4.6231604486
H        2.5505437885    1.0304145075    5.6476870470
H        2.6094264933    1.3219305654    3.8801781814
H        0.7229793448   -0.2780041688    4.7412516091
29   
Generated by ForceBalance from scan.xyz: Frame 24 of 24
C        1.7002296246   -1.6947075250    0.2447886017
C       -0.2061468271   -4.9437529200    6.1974855879
C        2.5752018544   -2.3285511371    1.1335674563
C        0.8247196557   -0.7122083121    0.7192839219
C        1.0470531923   -4.7450065168    6.7926890076
C       -0.6735083175   -4.0095443893    5.2715971377
C        2.5795758939   -1.9807979788    2.4871336569
C        0.8275530599   -0.3700805753    2.0746512716
C        1.8142145885   -3.6280439891    6.4674628613
C        0.0880199842   -2.8837899667    4.9325057074
C        1.7051429537   -0.9984197305    2.9669258907
C        1.3375745457   -2.6910263276    5.5372623595
C        2.7057136140    0.5810995562    4.6559731851
C        1.7323516634   -0.5746602870    4.4257416870
O        2.1729025439   -1.6283259429    5.2943532199
H        1.6957392932   -1.9683501165   -0.8071298122
H       -0.8042068290   -5.8146868096    6.4505991862
H        3.2519517568   -3.0989385339    0.7725095394
H        0.1368873053   -0.2188331895    0.0371715251
H        1.4277123016   -5.4621621788    7.5156768298
H       -1.6398878518   -4.1535175333    4.7948001886
H        3.2491769643   -2.4812661211    3.1804024437
H        0.1372021444    0.3879771350    2.4413438282
H        2.7852641574   -3.4576560596    6.9236948545
H       -0.2891913569   -2.1913054837    4.1901238180
H        3.7225364748    0.2705893989    4.3997857245
H        2.6839229042    0.8929338836    5.7045057975
H        2.4351952307    1.4314872439    4.0240045953
H        0.7250360283   -0.2606792155    4.7312261074
