19   

C        0.2864808700   -1.1772538858    0.6306168389
C        2.6562739666   -0.8078656058    0.4968734382
C        0.4337981375   -1.4176321067    2.0060663704
C        2.7337698707   -1.0584041323    1.8789038223
C        1.4104712069   -0.8736013174   -0.1498429341
C        1.1656998246   -0.5942062121   -1.6246463529
C        1.7530027041   -1.5937698625    4.0526578094
N        1.6391338383   -1.3614684038    2.6047002975
N        2.2551292836   -0.6108878080   -2.4426087570
O        0.0635738958   -0.3758916505   -2.0890632270
H       -0.6991717519   -1.2198421822    0.1684591486
H        3.5573719125   -0.5464107177   -0.0498074483
H       -0.4534317717   -1.6503497577    2.5895152074
H        3.7031378016   -0.9986694888    2.3671969373
H        1.8705907271   -2.6625804382    4.2599611802
H        2.6149077211   -1.0560634799    4.4604993473
H        0.8606470670   -1.2257958521    4.5693541650
H        2.0596279237   -0.4491955748   -3.4266777477
H        3.1639007254   -0.9308467523   -2.1383675540
19   

C        0.3036069957   -1.1998505692    0.6072979876
C        2.6563241968   -0.7241134945    0.5104629118
C        0.4471437508   -1.4691834580    1.9779826132
C        2.7310890840   -1.0063199452    1.8863185945
C        1.4219075580   -0.8248216757   -0.1501957205
C        1.1976617185   -0.5066853582   -1.6174457621
C        1.7508065785   -1.6326881444    4.0358364240
N        1.6429201451   -1.3749177081    2.5917366390
N        2.2370359440   -0.7602820158   -2.4587974403
O        0.1364295297   -0.1117754703   -2.0587091613
H       -0.6729411466   -1.2670211786    0.1292770773
H        3.5460270707   -0.4053383003   -0.0259814693
H       -0.4350908341   -1.7534840372    2.5459383515
H        3.6917338582   -0.9146584281    2.3867669630
H        1.9020415802   -2.7008867882    4.2233004606
H        2.5905071486   -1.0750784675    4.4628771795
H        0.8420422659   -1.3043321413    4.5506746542
H        2.0495035732   -0.5970352075   -3.4441121960
H        3.0682441997   -1.2525598193   -2.1600328896
19   

C        0.3257686691   -1.2238159584    0.5927635433
C        2.6570350613   -0.6498710177    0.5313247418
C        0.4675443458   -1.5196155564    1.9583684410
C        2.7314624644   -0.9610115839    1.9007543399
C        1.4341119301   -0.7802619666   -0.1424254813
C        1.2309157939   -0.4273175026   -1.6034517451
C        1.7564794675   -1.6708811204    4.0266198611
N        1.6525893218   -1.3893140152    2.5866728791
N        2.1631952416   -0.8982640296   -2.4724962612
O        0.2377259991    0.1368138618   -2.0167400060
H       -0.6417003213   -1.3154448910    0.1011158847
H        3.5353589679   -0.2844005676    0.0049102041
H       -0.4073645748   -1.8523735800    2.5111276725
H        3.6832490571   -0.8415137780    2.4121499009
H        1.9393624067   -2.7371317426    4.1958469465
H        2.5749173325   -1.0956670316    4.4712742443
H        0.8338519883   -1.3799420741    4.5393549241
H        1.9745139909   -0.7263411123   -3.4560266690
H        2.9106519294   -1.5147933486   -2.1811226493
19   

C        0.3586359055   -1.2687973475    0.5748070860
C        2.6627172158   -0.5956879057    0.5503218632
C        0.4986205095   -1.5835784197    1.9366256917
C        2.7369254102   -0.9283435005    1.9144186815
C        1.4538003414   -0.7611299479   -0.1387378690
C        1.2674855389   -0.3691497741   -1.5917339724
C        1.7688278950   -1.7086744025    4.0184268311
N        1.6699868912   -1.4131288254    2.5809214069
N        2.0351645654   -1.0228903143   -2.4987149654
O        0.3893875401    0.3824005934   -1.9634043559
H       -0.5992468244   -1.3886617231    0.0714427984
H        3.5287553278   -0.1846123067    0.0367282728
H       -0.3670786154   -1.9619125212    2.4743595563
H        3.6776854650   -0.7770630693    2.4376709217
H        1.9890515518   -2.7693958999    4.1772524374
H        2.5607165094   -1.1091754605    4.4788705020
H        0.8308553427   -1.4574665328    4.5243382096
H        1.8451646992   -0.8139296537   -3.4746890360
H        2.6826305297   -1.7536086967   -2.2315563133
19   

C        0.4140868393   -1.3083822636    0.5436590505
C        2.6859558789   -0.5406428384    0.5833093095
C        0.5362419296   -1.6378273270    1.9041730313
C        2.7443133035   -0.8901936903    1.9434727992
C        1.5026591056   -0.7457761842   -0.1378624091
C        1.3479185484   -0.3091795893   -1.5821885613
C        1.7613893070   -1.7348161558    4.0148512434
N        1.6841869712   -1.4283612524    2.5783109047
N        1.9106401949   -1.1033772470   -2.5239326096
O        0.6790870145    0.6486504416   -1.9108594713
H       -0.5280622962   -1.4574807963    0.0197768802
H        3.5435592755   -0.0832093716    0.0949545716
H       -0.3250572652   -2.0579341353    2.4173905081
H        3.6658402047   -0.7056581615    2.4897765666
H        2.0334063392   -2.7840974063    4.1690475143
H        2.5080656796   -1.0992149708    4.5017591559
H        0.7988260898   -1.5389026293    4.4985085725
H        1.7567673180   -0.8297719610   -3.4901678243
H        2.4127564655   -1.9498816131   -2.2864857933
19   

C        0.8825351905   -0.0594729013    0.7027870194
C        2.5012435337   -1.8071478442    0.4445668565
C        0.8111571882   -0.3740664899    2.0711538047
C        2.3870412323   -2.0727582595    1.8193589942
C        1.7380838303   -0.7861865318   -0.1357525593
C        1.9094634904   -0.3965973490   -1.5921232880
C        1.4959923028   -1.6360174408    4.0497536988
N        1.5528148448   -1.3646888741    2.6052297932
N        1.0642500478   -0.9669575755   -2.4828358982
O        2.7662935581    0.3754368787   -1.9692528361
H        0.2986470910    0.7630117175    0.2951267107
H        3.2023168865   -2.3683549620   -0.1696642936
H        0.1503095167    0.2104133514    2.7062080988
H        3.0007016051   -2.8596414347    2.2506659533
H        0.8076016257   -2.4615889320    4.2579216556
H        2.4907016867   -1.8938843322    4.4279616620
H        1.1585896305   -0.7476439570    4.5932223134
H        1.1954343463   -0.7062583217   -3.4559398370
H        0.3487855105   -1.6262121759   -2.2022281360
19   

C        0.8746126593   -0.1262219122    0.6757125567
C        2.5759319891   -1.7990355076    0.4797696396
C        0.7899626772   -0.4227781541    2.0479175985
C        2.4469953478   -2.0494322875    1.8555052039
C        1.7751244053   -0.8284857026   -0.1353722821
C        1.9775249397   -0.4608081465   -1.5933599693
C        1.4897036665   -1.6234607682    4.0598047871
N        1.5643846297   -1.3703032999    2.6128111814
N        0.9964967806   -0.8231676166   -2.4546216147
O        3.0037437328    0.0360236781   -2.0094246152
H        0.2621976540    0.6634961112    0.2462665931
H        3.3168119439   -2.3322777266   -0.1128933356
H        0.0909761134    0.1402475573    2.6611481735
H        3.0890242369   -2.7996247541    2.3102542896
H        0.8287083161   -2.4714380490    4.2667904513
H        2.4857606749   -1.8392138842    4.4602004864
H        1.1094034956   -0.7409122892    4.5840436913
H        1.1705694025   -0.6302853756   -3.4367984385
H        0.1717264895   -1.3264504313   -2.1521574441
19   

C        0.8464008206   -0.1789808379    0.6543208252
C        2.6181517324   -1.7785024012    0.5015768637
C        0.7601006192   -0.4591873109    2.0303471488
C        2.4864878842   -2.0152305692    1.8789352353
C        1.7824719591   -0.8539114350   -0.1385412639
C        1.9917886041   -0.5166036486   -1.6026124916
C        1.4865932276   -1.6036873906    4.0662147080
N        1.5676234682   -1.3647444178    2.6171636258
N        0.9146193507   -0.6557219641   -2.4166198162
O        3.0829588856   -0.2615684247   -2.0700736199
H        0.2046972068    0.5785127089    0.2103375410
H        3.3863299597   -2.2883364510   -0.0774848020
H        0.0312919490    0.0816306171    2.6286532810
H        3.1552490830   -2.7314467103    2.3496820945
H        0.8781993169   -2.4898534286    4.2746581398
H        2.4881309505   -1.7498991208    4.4840510920
H        1.0417501397   -0.7413718867    4.5729276326
H        1.0865807593   -0.5106902459   -3.4074528390
H        0.0291888837   -1.0146949807   -2.0825186870
19   

C        0.8337299207   -0.2572101957    0.6146948343
C        2.6714569554   -1.7811927270    0.5168617356
C        0.7478756136   -0.5065116459    1.9970713263
C        2.5390827111   -1.9898271581    1.8982460493
C        1.8039498565   -0.9090017770   -0.1557662292
C        2.0105067482   -0.6317080283   -1.6332822940
C        1.5000104265   -1.5732171506    4.0658577070
N        1.5872121245   -1.3620727468    2.6128737410
N        0.8853041779   -0.5576089552   -2.3938100279
O        3.1078139956   -0.5838264394   -2.1519079237
H        0.1616699429    0.4614347425    0.1522610928
H        3.4620497536   -2.2774528797   -0.0441706476
H       -0.0089987478    0.0161395304    2.5763788643
H        3.2324871653   -2.6672694371    2.3902718425
H        0.9102359489   -2.4687675827    4.2875105162
H        2.5010932999   -1.6888888246    4.4941610086
H        1.0320779697   -0.7110341275    4.5515210220
H        1.0379269133   -0.4520598621   -3.3928834943
H       -0.0307379685   -0.7760487169   -2.0240712366
19   

C        0.8162636401   -0.3239022777    0.6050655645
C        2.7236702144   -1.7580644144    0.5582564935
C        0.7277433328   -0.5489421378    1.9917759749
C        2.5871789560   -1.9455328414    1.9418445354
C        1.8253951989   -0.9403409831   -0.1446399812
C        2.0329836365   -0.7216045589   -1.6332575127
C        1.5021186239   -1.5418519902    4.0889338418
N        1.5993081196   -1.3505097595    2.6338698964
N        0.9233674615   -0.4361053863   -2.3689174360
O        3.1117624316   -0.8482510766   -2.1779046073
H        0.1104051396    0.3508678027    0.1285535406
H        3.5389671772   -2.2357561760    0.0163378061
H       -0.0606962399   -0.0536386865    2.5527134130
H        3.3049255747   -2.5822363864    2.4529982991
H        0.9276705571   -2.4455079022    4.3180327409
H        2.5009025419   -1.6327925417    4.5283426729
H        1.0135160146   -0.6816075558    4.5573384723
H        1.0769809140   -0.3492310887   -3.3697147170
H       -0.0111436765   -0.5045668587   -1.9891408516
19   

C        0.7842931523   -0.3873911720    0.5957805507
C        2.7581892929   -1.7249737756    0.5794811466
C        0.7079554879   -0.5849943535    1.9876883637
C        2.6324777421   -1.8880853659    1.9668124994
C        1.8227128695   -0.9666135046   -0.1441015965
C        2.0156619535   -0.8104768409   -1.6451238941
C        1.5246045446   -1.4991068312    4.1045925750
N        1.6174288576   -1.3276116515    2.6467933614
N        0.9601305889   -0.3259944160   -2.3572048916
O        3.0469732673   -1.1076015861   -2.2155983852
H        0.0366331604    0.2340429756    0.1124605631
H        3.5917906105   -2.1840092602    0.0491656284
H       -0.1059966329   -0.1203124881    2.5382802275
H        3.3788359370   -2.4809027258    2.4896424849
H        0.9803678484   -2.4179558866    4.3469307262
H        2.5251108497   -1.5505848303    4.5463847372
H        1.0068960555   -0.6484886933    4.5590346696
H        1.1104158094   -0.2587609242   -3.3600538549
H        0.0395266640   -0.2025433741   -1.9601012260
19   

C        0.7330929598   -0.5094652467    0.5954289073
C        2.8006320738   -1.6905353606    0.6002610786
C        0.6804949041   -0.6719502798    1.9930510247
C        2.6974803271   -1.8231396707    1.9925297419
C        1.8080301234   -1.0241175393   -0.1405108236
C        1.9867015621   -0.9252420445   -1.6510636572
C        1.5732301035   -1.4671337044    4.1272181306
N        1.6480825598   -1.3223404916    2.6655149024
N        1.0220090917   -0.2819136544   -2.3565450078
O        2.9426418371   -1.3964477351   -2.2359248190
H       -0.0755949896    0.0201391954    0.1023208332
H        3.6606375303   -2.1092614586    0.0787429644
H       -0.1670763483   -0.2617964761    2.5361651535
H        3.4883349041   -2.3463127230    2.5242026389
H        1.1022172409   -2.4195890198    4.3923583551
H        2.5760267625   -1.4317258793    4.5653212737
H        0.9924892574   -0.6491436185    4.5650000922
H        1.1765408077   -0.2359157658   -3.3599045662
H        0.2083988071    0.1410938961   -1.9342042084
19   

C        0.6829829777   -0.5837034880    0.5767173092
C        2.8300345570   -1.6209606275    0.5906510121
C        0.6504082683   -0.7200441878    1.9776510550
C        2.7435701558   -1.7305240921    1.9862239582
C        1.7898761614   -1.0371292503   -0.1516997739
C        1.9236473073   -0.9700900334   -1.6656918770
C        1.6043802997   -1.4156119648    4.1199157650
N        1.6655449504   -1.2877436096    2.6560036245
N        1.0517816957   -0.1596717989   -2.3282856543
O        2.7670126603   -1.5886321257   -2.2849475917
H       -0.1708449900   -0.1408936091    0.0731025825
H        3.7078173734   -1.9978070727    0.0668961725
H       -0.2232778343   -0.3644812077    2.5178879876
H        3.5690621554   -2.1912468713    2.5229960704
H        1.1844854474   -2.3875317784    4.4001120659
H        2.6056970068   -1.3228731951    4.5528753096
H        0.9837261066   -0.6228000086    4.5491487639
H        1.1835301224   -0.1154584387   -3.3350133412
H        0.4319890946    0.4834602966   -1.8564218469
19   

C        0.6472606038   -0.6382504817    0.5718442822
C        2.8442196413   -1.5713801014    0.5825503621
C        0.6334853115   -0.7499984344    1.9749636412
C        2.7745582034   -1.6591476683    1.9809556584
C        1.7707157047   -1.0494969952   -0.1556935997
C        1.8566075560   -1.0280604318   -1.6719123050
C        1.6351305392   -1.3699725377    4.1185948455
N        1.6815078552   -1.2561679430    2.6529808505
N        1.1315717341   -0.0691699481   -2.3111899880
O        2.5737119621   -1.7765259063   -2.3059643136
H       -0.2313123879   -0.2561408413    0.0593263124
H        3.7286195930   -1.9233992926    0.0529402836
H       -0.2534346345   -0.4310177309    2.5164888959
H        3.6236695361   -2.0740291777    2.5182665171
H        1.2724078113   -2.3609377667    4.4118702524
H        2.6315998248   -1.2156131278    4.5450023972
H        0.9718974015   -0.6093458796    4.5422992546
H        1.2477567653   -0.0382672852   -3.3202917730
H        0.6728042254    0.6836446220   -1.8162007104
19   

C        0.6014738179   -0.6848093845    0.5733265652
C        2.8411953705   -1.5171572725    0.5641365765
C        0.6093486383   -0.7834575270    1.9771144089
C        2.7911806018   -1.5946128917    1.9644134973
C        1.7363018109   -1.0493131697   -0.1613831732
C        1.7729551764   -1.0606300802   -1.6783900612
C        1.6615760003   -1.3441099072    4.1126318705
N        1.6880852027   -1.2352652398    2.6461363192
N        1.2317293030    0.0176403587   -2.3048139555
O        2.3441445436   -1.9195111511   -2.3198492459
H       -0.2971048333   -0.3515288090    0.0601089921
H        3.7296175385   -1.8412277382    0.0239972719
H       -0.2857679321   -0.5022904568    2.5260656079
H        3.6627350284   -1.9688708310    2.4955722270
H        1.3553687692   -2.3517924044    4.4134673958
H        2.6520545632   -1.1341908811    4.5290618791
H        0.9616955228   -0.6187926292    4.5392734393
H        1.3339644908    0.0340939940   -3.3156770287
H        0.9120874657    0.8323183769   -1.7971893660
19   

C        0.5489804597   -0.7298392462    0.5887153710
C        2.8251118450   -1.4634914992    0.5507810147
C        0.5818104964   -0.8164632926    1.9925572026
C        2.7981071149   -1.5314804115    1.9526209202
C        1.6894155486   -1.0497851109   -0.1579476132
C        1.6767117763   -1.0897704077   -1.6743369146
C        1.6870832012   -1.3202020152    4.1151439859
N        1.6895487904   -1.2156783107    2.6480904606
N        1.3504569205    0.0655163354   -2.3068449263
O        2.0607028273   -2.0493533630   -2.3115037619
H       -0.3686432381   -0.4413967039    0.0813250492
H        3.7160431948   -1.7584487745   -0.0011072752
H       -0.3173249435   -0.5716722413    2.5522639339
H        3.6915197011   -1.8653353129    2.4742966310
H        1.4423451158   -2.3426388585    4.4225617341
H        2.6687393538   -1.0523903029    4.5189758771
H        0.9514768987   -0.6350944317    4.5480860245
H        1.4279881310    0.0530136908   -3.3198540493
H        1.1742976463    0.9251845879   -1.8024601257
19   

C        0.5131956429   -0.7853518027    0.5900599198
C        2.8243003294   -1.4068818050    0.5321537976
C        0.5626373007   -0.8658383490    1.9932914590
C        2.8117814183   -1.4716427124    1.9348854383
C        1.6620386824   -1.0535442097   -0.1651374088
C        1.6181017617   -1.1039379735   -1.6807218320
C        1.7080808101   -1.3131992973    4.1064266450
N        1.6944535416   -1.2091933064    2.6393848366
N        1.5313937130    0.0847768965   -2.3243078096
O        1.7612985800   -2.1321158723   -2.3095590630
H       -0.4204444861   -0.5433229569    0.0872177588
H        3.7236746004   -1.6611636060   -0.0254898710
H       -0.3428161653   -0.6638760716    2.5598768604
H        3.7241084600   -1.7605436224    2.4505997763
H        1.5006305428   -2.3432934160    4.4157988803
H        2.6834170280   -1.0124954568    4.5022201322
H        0.9532948266   -0.6532288067    4.5454095104
H        1.5681107323    0.0472252359   -3.3389114693
H        1.5094003015    0.9668309158   -1.8277991705
19   

C        0.4518254305   -0.8326955226    0.6055454010
C        2.7928953573   -1.3347354018    0.5125246952
C        0.5247581696   -0.9134198174    2.0071801231
C        2.8017818909   -1.4028574095    1.9157291886
C        1.6020626343   -1.0457351341   -0.1658178352
C        1.5232931668   -1.0813211708   -1.6804713514
C        1.7195711616   -1.3082821753    4.1025563695
N        1.6815226726   -1.2007988782    2.6361784494
N        1.6867989800    0.0963651955   -2.3278136760
O        1.3407839697   -2.1048816028   -2.3061213585
H       -0.4983968387   -0.6358684850    0.1136993237
H        3.6983884899   -1.5376305883   -0.0554965560
H       -0.3821457014   -0.7582406099    2.5860605818
H        3.7342883009   -1.6442761175    2.4196247773
H        1.5546550952   -2.3462293897    4.4113241929
H        2.6884249403   -0.9729042976    4.4861206494
H        0.9469682437   -0.6778892642    4.5539041152
H        1.6432975283    0.0604189834   -3.3421723881
H        1.8565312146    0.9642944897   -1.8347198316
19   

C        0.3931385634   -0.8818916160    0.6274668863
C        2.7578314506   -1.2604585401    0.4993851671
C        0.4893426680   -0.9623450729    2.0271301028
C        2.7881713956   -1.3317565616    1.9027310453
C        1.5418869119   -1.0388317979   -0.1599579249
C        1.4265773757   -1.0511547745   -1.6722924499
C        1.7307682072   -1.3004725296    4.1043622376
N        1.6681000994   -1.1916755392    2.6389139793
N        1.8338877066    0.0633290987   -2.3254812437
O        0.9132417901   -1.9647201769   -2.2844108513
H       -0.5711568237   -0.7309596330    0.1461485996
H        3.6668638477   -1.4087475371   -0.0793043436
H       -0.4166425788   -0.8544339147    2.6180734511
H        3.7384715196   -1.5231923206    2.3947049965
H        1.6000190877   -2.3432115234    4.4133481345
H        2.6951491984   -0.9385720017    4.4747672839
H        0.9472809457   -0.6927634552    4.5679757246
H        1.7045052660    0.0639190499   -3.3331554016
H        2.1989841884    0.8719388358   -1.8376933697
19   

C        0.3518106705   -0.9386928560    0.6377288666
C        2.7327552614   -1.2001691655    0.4873491646
C        0.4628039184   -1.0275133147    2.0353586608
C        2.7764793537   -1.2831879998    1.8901315454
C        1.5007851523   -1.0331784360   -0.1593680248
C        1.3553691648   -1.0125911170   -1.6685540578
C        1.7354851449   -1.3185480440    4.1001326041
N        1.6563074018   -1.2044941585    2.6358755293
N        1.9901232788   -0.0074403715   -2.3222986621
O        0.6070841053   -1.7565822195   -2.2690012555
H       -0.6214778911   -0.8269259042    0.1628991722
H        3.6446238650   -1.2959886047   -0.0975541743
H       -0.4429160227   -0.9674691735    2.6334809638
H        3.7384061504   -1.4310626957    2.3744702260
H        1.6406463321   -2.3663259937    4.4050371979
H        2.6910856881   -0.9280150567    4.4641355851
H        0.9374163772   -0.7378101128    4.5734406254
H        1.8200768806    0.0492775219   -3.3223820815
H        2.5100391344    0.7105598304   -1.8337142573
19   

C        0.3184063248   -0.9777770014    0.6439296675
C        2.7087688837   -1.1328383188    0.4788256530
C        0.4397165670   -1.0876620505    2.0389028316
C        2.7617197775   -1.2399561753    1.8799558666
C        1.4666209824   -1.0034574849   -0.1592368842
C        1.2932275498   -0.9452966304   -1.6647278276
C        1.7332963598   -1.3522868465    4.0936837896
N        1.6425912529   -1.2222677814    2.6314151944
N        2.1196299037   -0.0970819657   -2.3325405549
O        0.3971141293   -1.5179477450   -2.2516551422
H       -0.6613801092   -0.8960624962    0.1755155225
H        3.6228608502   -1.1802003478   -0.1079805182
H       -0.4651706366   -1.0765605586    2.6411964290
H        3.7309490260   -1.3545438126    2.3587067334
H        1.6686785370   -2.4057873260    4.3863485765
H        2.6799848948   -0.9403522371    4.4574017237
H        0.9227613914   -0.7986313994    4.5782352714
H        1.9416374714   -0.0026062252   -3.3284790890
H        2.7598123191    0.5222336880   -1.8526047204
19   

C        0.2906643052   -1.0117295798    0.6577485480
C        2.6853310520   -1.0602837493    0.4798932682
C        0.4232131153   -1.1461448256    2.0492943164
C        2.7485089452   -1.1948404646    1.8784727927
C        1.4345688903   -0.9654566919   -0.1504500218
C        1.2291305677   -0.8766067200   -1.6517648908
C        1.7359820144   -1.3906469953    4.0939050392
N        1.6332648064   -1.2399104245    2.6344173507
N        2.1941727446   -0.2254026256   -2.3577727673
O        0.2351233165   -1.2921980803   -2.2139709371
H       -0.6956199345   -0.9590577318    0.1982840259
H        3.6009082961   -1.0593091539   -0.1054933643
H       -0.4787225805   -1.1856994430    2.6548224539
H        3.7235489380   -1.2777796335    2.3519016410
H        1.7146936642   -2.4504913185    4.3693598978
H        2.6670498220   -0.9470353264    4.4607004913
H        0.9063842988   -0.8775472293    4.5907587856
H        2.0119457618   -0.1232375720   -3.3522704494
H        2.9406571608    0.2877727634   -1.9083970078
19   

C        0.2747098674   -1.0570422231    0.6535228051
C        2.6698686404   -0.9836283628    0.4862576257
C        0.4085310963   -1.2197079788    2.0417057345
C        2.7333779540   -1.1497922794    1.8816364074
C        1.4172333481   -0.9317593144   -0.1484124152
C        1.1919696050   -0.8068594927   -1.6473013411
C        1.7223741636   -1.4427535290    4.0873747825
N        1.6189922517   -1.2677323542    2.6306347299
N        2.2464915644   -0.3744029988   -2.3936322456
O        0.1318527439   -1.0586332567   -2.1865513916
H       -0.7138462392   -1.0366093077    0.1960846356
H        3.5903484441   -0.9202083672   -0.0863589179
H       -0.4928945134   -1.3164731301    2.6415466414
H        3.7091097602   -1.1944877816    2.3587434067
H        1.7219131668   -2.5074873759    4.3439820651
H        2.6439263213   -0.9876644346    4.4639941933
H        0.8822093851   -0.9543935529    4.5914561803
H        2.0601970380   -0.2728289047   -3.3874798636
H        3.0955732116   -0.0113882474   -1.9836300772
19   

C        0.2849806638   -1.1327645467    0.6470202411
C        2.6717087818   -0.8957626155    0.4869007707
C        0.4307308632   -1.3424774043    2.0274709073
C        2.7459147754   -1.1125564830    1.8750671037
C        1.4177264141   -0.9065802578   -0.1474163771
C        1.1587426288   -0.6842814193   -1.6329146483
C        1.7550125838   -1.5422284942    4.0680799644
N        1.6420387788   -1.3343152074    2.6163371350
N        2.2353888489   -0.4622999018   -2.4305900043
O        0.0461927072   -0.6904647837   -2.1238585887
H       -0.7064594067   -1.1455754310    0.1955196252
H        3.5848721473   -0.7208139741   -0.0728954903
H       -0.4625817273   -1.5155817937    2.6222782234
H        3.7214274076   -1.1005188219    2.3545157826
H        1.8058329386   -2.6118235257    4.2975609971
H        2.6537217357   -1.0529723935    4.4569175467
H        0.8930132617   -1.1069742169    4.5840058088
H        2.0243753123   -0.3197468699   -3.4143805026
H        3.1880472002   -0.4644459269   -2.0961847805
