14   

C       -0.3065419113    0.8554453096   -2.0520908109
C       -0.4546071975   -0.1050800792   -0.9694483587
C       -1.0805970465    0.5379221394   -3.1382620063
C       -1.3506898695   -1.1149877132   -1.2687436784
C       -1.7304182729   -2.2922533309   -0.4666153984
C       -1.3075254103   -2.3876739171    0.9916123803
O       -2.3294401386   -3.2374974564   -0.9720184232
S       -2.0200038329   -0.9296849950   -2.8906920815
H        0.3465367517    1.7205703825   -2.0057611687
H        0.0920380846   -0.0322575841   -0.0351020362
H       -1.1170696419    1.1170170911   -4.0534647076
H       -1.7454322457   -1.5604184776    1.5561696262
H       -0.2181810242   -2.3424599728    1.0665303695
H       -1.6537875415   -3.3325629702    1.4199502024
14   

C       -0.2946147741    0.8543354954   -2.0632366098
C       -0.3905704092   -0.1379795954   -1.0036018180
C       -1.1700100175    0.6058754391   -3.0889427046
C       -1.3587959404   -1.0927946966   -1.2525436759
C       -1.6833273090   -2.3078098064   -0.4759223624
C       -1.3076739735   -2.3896236600    0.9961751975
O       -2.1351530253   -3.3085596990   -1.0232198911
S       -2.1483106920   -0.8300431125   -2.8075574324
H        0.3984978347    1.6888568849   -2.0469809867
H        0.2475001179   -0.1298687535   -0.1262533949
H       -1.2565906203    1.2162467098   -3.9801343778
H       -1.8727270995   -1.6425991842    1.5597351789
H       -0.2379124092   -2.2061646942    1.1215350205
H       -1.5443515274   -3.3831298939    1.3874692775
14   

C       -0.2472502395    0.8028546209   -2.0890823359
C       -0.3015569375   -0.2145016959   -1.0503401806
C       -1.2328577408    0.6398539937   -3.0285807503
C       -1.3545341552   -1.0924862340   -1.2209316686
C       -1.6491226625   -2.3311886240   -0.4580830067
C       -1.3278706404   -2.4003522242    1.0281804664
O       -1.9728501424   -3.3657276587   -1.0291846102
S       -2.2696673260   -0.7407638072   -2.6857321397
H        0.4977546150    1.5908390678   -2.1228163316
H        0.4284740003   -0.2814419326   -0.2508321926
H       -1.3654330736    1.2803270393   -3.8925748860
H       -2.0969442853   -1.8640199287    1.5901476072
H       -0.3540916478   -1.9502026738    1.2323124564
H       -1.3089767066   -3.4428383481    1.3582062252
14   

C       -0.2100583385    0.7893806082   -2.1149992125
C       -0.2200324475   -0.2596222585   -1.1067707268
C       -1.2786487866    0.6981940731   -2.9701729565
C       -1.3235462433   -1.0812301735   -1.2088630145
C       -1.5776250923   -2.3475233285   -0.4612913751
C       -1.3629730281   -2.3849653787    1.0448146517
O       -1.7322831720   -3.4089119416   -1.0488497906
S       -2.3422049076   -0.6494005536   -2.5794845339
H        0.5642089782    1.5456142408   -2.1904712046
H        0.5749160619   -0.3935493075   -0.3806582147
H       -1.4554130987    1.3714443163   -3.8006882675
H       -2.2712236922   -2.0418178465    1.5470160508
H       -0.5321632233   -1.7361103761    1.3307286963
H       -1.1418497143   -3.4064204963    1.3665785446
14   

C       -0.6219405344    0.8800547608   -2.0639343733
C       -1.1450669118   -0.0649323251   -1.0889284289
C       -0.4755860830    0.3165195644   -3.3061680606
C       -1.4151212492   -1.2964541590   -1.6403818861
C       -1.8168223781   -2.5434715178   -0.9060892980
C       -3.1130391103   -2.5508044809   -0.1111185037
O       -1.0245455112   -3.4563687255   -0.7369375789
S       -0.9754489200   -1.3714152775   -3.3435788607
H       -0.3631519996    1.9071575179   -1.8291031192
H       -1.2771953772    0.1702087892   -0.0378254930
H       -0.0907785775    0.8407875216   -4.1729722878
H       -3.9398220012   -2.8261302941   -0.7710046737
H       -3.3060762627   -1.5595502431    0.3062200236
H       -3.0494903928   -3.2758791585    0.7049026700
14   

C       -0.4983587793    0.8467285126   -2.0643722809
C       -0.9173150948   -0.0855629361   -1.0284651517
C       -0.5621050012    0.2927326152   -3.3180270943
C       -1.2879360180   -1.3051362919   -1.5376537288
C       -1.7648391147   -2.5112642233   -0.7692471844
C       -3.2429105518   -2.6513967893   -0.4462155689
O       -0.9797236160   -3.3504274001   -0.3625347335
S       -1.1304496883   -1.3735892876   -3.2894570675
H       -0.1687176064    1.8608435918   -1.8643969221
H       -0.9267172496    0.1539079466    0.0300369625
H       -0.2907173446    0.8124331490   -4.2294040489
H       -3.8078219288   -2.7936902895   -1.3710020952
H       -3.5978316197   -1.7472791656    0.0549533799
H       -3.4046900952   -3.5117227956    0.2092554369
14   

C       -0.4076483888    0.8153499694   -2.0198482305
C       -0.7440421611   -0.0978614223   -0.9381253719
C       -0.6851201339    0.2832447833   -3.2532393043
C       -1.2369854488   -1.2979385216   -1.3913625990
C       -1.7865034570   -2.4130662445   -0.5485148739
C       -3.2534181017   -2.7944065149   -0.6762884913
O       -1.0475526772   -3.1403789562    0.0954182174
S       -1.3539663354   -1.3418516312   -3.1490884413
H        0.0114391171    1.8039467689   -1.8644082282
H       -0.6261351990    0.1430808930    0.1137090755
H       -0.5117772756    0.7962046538   -4.1919721239
H       -3.5480464630   -2.8230505677   -1.7279252040
H       -3.8664025770   -2.0557146295   -0.1534182538
H       -3.4253096347   -3.7787289787   -0.2319356392
14   

C       -0.3297916305    0.7853782685   -2.0242359331
C       -0.6382617849   -0.1261216702   -0.9330614708
C       -0.7584370374    0.3075156404   -3.2360619072
C       -1.2578311543   -1.2794122889   -1.3598061234
C       -1.8276026026   -2.3393563969   -0.4745410517
C       -3.2384274000   -2.8552828350   -0.7184019405
O       -1.1176405569   -2.9397640343    0.3196301895
S       -1.5395924349   -1.2641400700   -3.1005009740
H        0.1764277613    1.7354640314   -1.8893312493
H       -0.4155804523    0.0813284047    0.1091217599
H       -0.6319406063    0.8301544618   -4.1769370716
H       -3.3779089714   -3.1048167952   -1.7726682456
H       -3.9603612703   -2.0861490398   -0.4316936038
H       -3.4179391177   -3.7511263727   -0.1173120516
14   

C       -0.2647008874    0.7737387207   -2.0497159778
C       -0.5570472603   -0.1356684096   -0.9524829017
C       -0.8238297773    0.3581738424   -3.2309976976
C       -1.3000820959   -1.2283284570   -1.3470606837
C       -1.8651163358   -2.2571847922   -0.4338124941
C       -3.2149378836   -2.8929958465   -0.7337058808
O       -1.1824790589   -2.7286443510    0.4671185346
S       -1.7145034101   -1.1506406255   -3.0597690487
H        0.3240028009    1.6784256290   -1.9398273180
H       -0.2362348346    0.0278429863    0.0719940164
H       -0.7307524962    0.8911806817   -4.1699503121
H       -3.2312981674   -3.2895777683   -1.7515540866
H       -4.0030425924   -2.1434527670   -0.6237663728
H       -3.4053036406   -3.7116378577   -0.0339037030
14   

C       -0.2137573431    0.7509423163   -2.0810934386
C       -0.5107853899   -0.1501515131   -0.9782809578
C       -0.8788731155    0.4034067580   -3.2290951131
C       -1.3729220135   -1.1669913658   -1.3360935539
C       -1.9360842633   -2.1781790101   -0.4091852739
C       -3.2262291519   -2.9092157128   -0.7516563798
O       -1.3019172712   -2.5312447509    0.5789154469
S       -1.8816468127   -1.0284047598   -3.0194650456
H        0.4548298025    1.6013748027   -1.9983683162
H       -0.1073202304   -0.0367779177    0.0236814451
H       -0.8003300011    0.9431403741   -4.1655235955
H       -3.1513085828   -3.3661767438   -1.7413491308
H       -4.0607704757   -2.2032652649   -0.7391287845
H       -3.4160566698   -3.6949987910   -0.0150047025
14   

C       -0.1762592245    0.7332292968   -2.1015454137
C       -0.4698753351   -0.1626618289   -0.9935717124
C       -0.9431256663    0.4622515568   -3.2060018165
C       -1.4424016995   -1.0931795458   -1.3023089839
C       -1.9927736353   -2.1044403436   -0.3714735702
C       -3.2306190527   -2.9085829583   -0.7412621246
O       -1.4132207524   -2.3549658378    0.6803912698
S       -2.0445309899   -0.8868227370   -2.9474878759
H        0.5642080641    1.5247327457   -2.0534984448
H        0.0166160058   -0.1090447349   -0.0239214756
H       -0.8834505155    1.0116445613   -4.1381939729
H       -3.0722466458   -3.4250571540   -1.6912815461
H       -4.0907967076   -2.2398096550   -0.8292167362
H       -3.4374017756   -3.6518366878    0.0339553745
14   

C       -0.1398066230    0.6900776559   -2.1089646554
C       -0.4399870213   -0.2006549647   -0.9985703237
C       -0.9905634568    0.5043688013   -3.1687924744
C       -1.5113528857   -1.0332458531   -1.2567245076
C       -2.0595452104   -2.0468075813   -0.3281696986
C       -3.2471366140   -2.9084360303   -0.7313763355
O       -1.5579644205   -2.2042578899    0.7805844471
S       -2.1843065460   -0.7532483041   -2.8630562738
H        0.6659967456    1.4164067805   -2.0948130809
H        0.1140035992   -0.2147924050   -0.0643690107
H       -0.9405863071    1.0649885664   -4.0948497318
H       -3.0058454543   -3.4743284825   -1.6348292163
H       -4.1173844650   -2.2745641674   -0.9200967515
H       -3.4878392385   -3.6106361707    0.0718238563
14   

C       -0.1157399818    0.6562635755   -2.1057690456
C       -0.4080271488   -0.2373615760   -0.9956183574
C       -1.0562117166    0.5735424284   -3.1007478829
C       -1.5708550505   -0.9584949081   -1.1821617379
C       -2.1055814874   -1.9836147615   -0.2573902270
C       -3.2543444202   -2.8878345477   -0.6798490180
O       -1.6743232407   -2.0663163370    0.8881755346
S       -2.3297515975   -0.5842792082   -2.7300223317
H        0.7497209454    1.3097013995   -2.1385483089
H        0.2182721994   -0.3350502085   -0.1135877103
H       -1.0268592054    1.1532994203   -4.0158411586
H       -2.9306767950   -3.5344020579   -1.4996611993
H       -4.1060047570   -2.2854365844   -1.0056135010
H       -3.5660431659   -3.5122485875    0.1622293985
14   

C       -0.0996299015    0.6145466947   -2.1190381033
C       -0.3999016519   -0.2788660712   -1.0108762343
C       -1.1011114576    0.6345098711   -3.0558673235
C       -1.6328272759   -0.8873203105   -1.1334554190
C       -2.1730206403   -1.9205873837   -0.2173056566
C       -3.2577892923   -2.8800514848   -0.6852785098
O       -1.8476585908   -1.9289745745    0.9647551831
S       -2.4445340847   -0.4199809812   -2.6283209598
H        0.8150983854    1.1932386838   -2.1930369011
H        0.2723407575   -0.4587692941   -0.1770355690
H       -1.0772196845    1.2311283244   -3.9602210924
H       -2.8484612263   -3.5525442670   -1.4436890996
H       -4.0987182626   -2.3246597877   -1.1074902423
H       -3.6180342333   -3.4753127744    0.1585405707
14   

C       -0.0774865174    0.5527857529   -2.1178009183
C       -0.3906852830   -0.3332301495   -1.0072601032
C       -1.1242382360    0.6746541462   -2.9954092059
C       -1.6771755629   -0.8264753962   -1.0631013315
C       -2.2433077816   -1.8538892055   -0.1488016513
C       -3.2382216928   -2.8812384791   -0.6692752221
O       -2.0537401969   -1.7811944517    1.0589874196
S       -2.5268029188   -0.2694952239   -2.5049955026
H        0.8778607750    1.0531298096   -2.2364313808
H        0.3122389202   -0.5907483046   -0.2206280294
H       -1.1004114956    1.2837227822   -3.8914332120
H       -2.7336893603   -3.5569565419   -1.3648786186
H       -4.0652641495   -2.3845427265   -1.1819727081
H       -3.6403035862   -3.4659600203    0.1629304413
14   

C       -0.0683470506    0.4832957644   -2.1269847149
C       -0.3906636079   -0.4092954432   -1.0242410757
C       -1.1523774587    0.7270000712   -2.9307935100
C       -1.7159660733   -0.7826698754   -1.0095420520
C       -2.3234443515   -1.7980050239   -0.0974803990
C       -3.2064663045   -2.8988727111   -0.6670430447
O       -2.2862138867   -1.6511708156    1.1159005964
S       -2.6009101025   -0.1053955133   -2.3762094718
H        0.9189030941    0.9012966624   -2.2935159239
H        0.3351752762   -0.7554831901   -0.2948024816
H       -1.1300031578    1.3618245505   -3.8088003395
H       -2.5872694345   -3.6120821958   -1.2173925616
H       -3.9561519514   -2.4779986025   -1.3408730823
H       -3.7173017137   -3.4254854059    0.1440037872
14   

C       -0.0589789324    0.4168982961   -2.1765492363
C       -0.3938758657   -0.4943642497   -1.0927200614
C       -1.1638045309    0.7964167904   -2.8953749036
C       -1.7418161475   -0.7495755374   -1.0120213468
C       -2.4115914334   -1.7288531260   -0.0910236035
C       -3.1377360603   -2.9302518461   -0.6766124340
O       -2.5471705920   -1.4862142054    1.0974299167
S       -2.6463465624    0.0722913883   -2.2814883389
H        0.9503124137    0.7527546715   -2.3902103839
H        0.3403665698   -0.9321336103   -0.4237227822
H       -1.1375787037    1.4690767734   -3.7446308124
H       -2.4050838832   -3.6764251478   -0.9948161431
H       -3.7374443328   -2.6282522446   -1.5384228913
H       -3.7950991299   -3.3747560519    0.0758379264
14   

C       -0.6052815392    1.0091774817   -2.0888249555
C       -1.1464987589    0.3438660674   -0.9131341308
C       -0.5009994164    0.1617971987   -3.1629388356
C       -1.4240385114   -0.9810423145   -1.1402192483
C       -2.0007126556   -1.9753138371   -0.1647514271
C       -1.0666035269   -2.7431403670    0.7553393346
O       -3.2050976050   -2.1360297022   -0.0667222928
S       -1.0528720175   -1.4682729742   -2.7903978748
H       -0.3229341074    2.0564797821   -2.1116274726
H       -1.3201672461    0.8423494850    0.0351357752
H       -0.1267998625    0.4543462105   -4.1369700487
H       -0.4168963399   -2.0439672130    1.2878850508
H       -0.4504954284   -3.4257190128    0.1644915629
H       -1.6451405319   -3.3198296152    1.4824515221
14   

C       -0.4871538630    0.9742209853   -2.0568032667
C       -0.9474172067    0.2149028808   -0.9040266189
C       -0.5328190231    0.2392087929   -3.2143029497
C       -1.2838391138   -1.0800864315   -1.2256654796
C       -1.9347339465   -2.0913443136   -0.3261043314
C       -1.2142311869   -2.5312464365    0.9386397236
O       -3.1124617685   -2.3836764894   -0.4572348947
S       -1.1222714931   -1.3987448845   -2.9496632760
H       -0.1610376131    2.0077518113   -2.0066104269
H       -1.0425172268    0.6359852155    0.0915696610
H       -0.2461574247    0.6164938808   -4.1888615667
H       -0.6272880884   -1.7045664270    1.3462123329
H       -0.5433344824   -3.3611343887    0.7019851054
H       -1.9386064580   -2.8592745763    1.6892012365
14   

C       -0.4234988252    0.9296277218   -2.0361253555
C       -0.8243100039    0.1375057862   -0.8833355230
C       -0.6092321726    0.2582289522   -3.2177553739
C       -1.2573627321   -1.1247078004   -1.2333179558
C       -1.8960043232   -2.1382527483   -0.3434972628
C       -1.2762757195   -2.4418404682    1.0128226905
O       -3.0198234132   -2.5627668352   -0.5726440856
S       -1.2616395387   -1.3595425716   -2.9790498806
H       -0.0383935856    1.9416011549   -1.9677226312
H       -0.8127900387    0.5184453789    0.1324751346
H       -0.3881066158    0.6699700504   -4.1954260481
H       -0.8262724936   -1.5427139128    1.4395229653
H       -0.5021955003   -3.2042706022    0.8929233066
H       -2.0412404456   -2.8152419369    1.6992615901
14   

C       -0.3897660124    0.8964936370   -2.0364351771
C       -0.7374800805    0.0719919908   -0.8891600050
C       -0.6982542799    0.2884811685   -3.2263110114
C       -1.2639674749   -1.1519888433   -1.2544037807
C       -1.8611434866   -2.1918134354   -0.3796199062
C       -1.3066644298   -2.4141915438    1.0204040593
O       -2.9082092892   -2.7510237967   -0.6832084283
S       -1.4082445644   -1.3068974927   -3.0042623952
H        0.0496706937    1.8852847303   -1.9572060170
H       -0.6173709532    0.4058995442    0.1358856898
H       -0.5325311471    0.7328920180   -4.2006326490
H       -1.1010094978   -1.4592235278    1.5085556145
H       -0.3808236110   -2.9917323064    0.9556034624
H       -2.0297510716   -2.9690350511    1.6248423598
14   

C       -0.3436588505    0.8790895497   -2.0286630500
C       -0.6420081041    0.0209014014   -0.8923394750
C       -0.8080606998    0.3586913138   -3.2092306543
C       -1.3014107853   -1.1379791521   -1.2575414775
C       -1.8598170092   -2.1968289221   -0.3906537969
C       -1.3224490106   -2.3826870166    1.0205370401
O       -2.8383137072   -2.8506162734   -0.7374369261
S       -1.6140572317   -1.1910153893   -2.9923719585
H        0.1774033233    1.8272794357   -1.9478778187
H       -0.3864553064    0.2817781487    0.1292306352
H       -0.7000394074    0.8402039561   -4.1739843115
H       -1.4110826136   -1.4492786477    1.5815313653
H       -0.2717782505   -2.6810179775    0.9755709497
H       -1.8905937152   -3.1615056152    1.5371006547
14   

C       -0.3115282663    0.8590295691   -2.0500534517
C       -0.5657069667   -0.0318939899   -0.9283241354
C       -0.8765371352    0.4042410769   -3.2135058139
C       -1.3066916913   -1.1437342377   -1.2849035480
C       -1.8115499548   -2.2397516592   -0.4379145525
C       -1.3208429375   -2.3805465496    0.9951790896
O       -2.6770608332   -3.0098379120   -0.8449375615
S       -1.7314760803   -1.1188776039   -2.9972359098
H        0.2557330540    1.7805533095   -1.9718957531
H       -0.2147698121    0.1694639008    0.0783660804
H       -0.8124283845    0.9173053353   -4.1658363412
H       -1.5464754627   -1.4704378939    1.5565356958
H       -0.2412362058   -2.5516608004    0.9988091932
H       -1.8163031040   -3.2274975436    1.4782682479
14   

C       -0.3066924295    0.8648430607   -2.0602561054
C       -0.5085707788   -0.0624512893   -0.9575424371
C       -0.9773836591    0.4801447469   -3.1923659425
C       -1.3294720944   -1.1237153871   -1.2930204723
C       -1.7724029326   -2.2610624425   -0.4683687259
C       -1.3152675656   -2.3771666629    0.9779159655
O       -2.5113566758   -3.1274156332   -0.9287933249
S       -1.8767144583   -1.0158055087   -2.9672974518
H        0.3050278151    1.7583412759   -1.9927381331
H       -0.0581449540    0.0739021524    0.0200627929
H       -0.9631961417    1.0275634928   -4.1274654317
H       -1.6493068641   -1.5027443287    1.5422325255
H       -0.2247665973   -2.4400412042    1.0167036767
H       -1.7394380426   -3.2768276181    1.4327452031
