27

C      0.13465    2.07620    1.03060
C     -0.39405    2.42119    2.28845
C     -2.79766   -0.60854   -1.39533
C     -3.44837   -1.86555   -1.22964
C     -0.45588   -0.28057    1.35237
C      0.11400    0.75340    0.57840
C     -0.95925    1.40065    3.03144
C     -0.99359    0.08325    2.57064
C     -1.49597   -0.74543   -1.80691
C     -2.60909   -2.91349   -1.52013
C     -2.10098    0.17104    4.51528
N      0.65535    0.38880   -0.70315
O     -1.16506    1.82075   -1.95863
O      0.49043    0.33545   -3.21028
O     -1.51865    1.46609    4.28793
O     -1.57542   -0.72605    3.52216
S     -1.01765   -2.40577   -2.00802
S     -0.37144    0.59343   -2.05654
Cl    -3.00501   -4.59367   -1.45884
H      0.54455    2.85059    0.38979
H     -0.37266    3.44242    2.65434
H     -3.25050    0.36012   -1.21655
H     -4.47778   -1.99466   -0.91587
H     -0.45442   -1.30594    1.00019
H     -1.81852   -0.18331    5.50873
H     -3.19128    0.23940    4.40285
H      1.54445    0.83532   -0.93179
