20

C     -3.43716   -0.70954   -0.19242
C      1.48052   -1.57564    0.00831
C      2.22969   -0.98743    2.64157
C      0.61527   -0.83378    0.81790
C      2.70173   -2.01362    0.52205
C      1.01764   -0.55112    2.13578
C      3.09136   -1.73243    1.82674
C     -2.43969   -0.03072   -1.03087
C     -1.04307   -0.63439   -0.88715
N     -4.22782   -1.26390    0.45432
O     -0.59799   -0.35019    0.43624
F      3.50865   -2.72709   -0.29061
F      0.19073    0.16942    2.92224
Br     4.76390   -2.34733    2.49386
H      1.23944   -1.82999   -1.01665
H      2.49510   -0.74602    3.66512
H     -2.75664   -0.10308   -2.07636
H     -2.41087    1.02949   -0.76239
H     -0.37071   -0.17225   -1.62111
H     -1.07105   -1.71661   -1.05910
