36

C      0.55017    5.57850   -5.29060
C      0.02062    1.72855   -0.29856
C     -0.75214    0.54074   -0.31479
C     -0.57303    2.95680   -0.51041
C     -2.11242    0.59838   -0.53748
C     -4.02862    4.22894   -1.17635
C      0.22241    5.69038   -3.91914
C     -1.97281    3.04576   -0.74530
C     -2.66710    4.27456   -0.97482
C     -2.75469    1.84577   -0.75491
C     -4.72727    2.98381   -1.15697
C      1.07573    5.98014   -2.80713
C     -1.05206    5.50211   -3.36498
C     -6.22129    2.96062   -1.36476
C      2.54487    6.25657   -2.83948
C     -1.94596    5.60775   -1.00684
N      0.79534    5.47696   -6.42892
N     -4.10873    1.83555   -0.96110
N      0.39079    5.96684   -1.67250
N     -0.91345    5.68302   -2.03046
N     -2.26809    5.27607   -3.98357
H      1.09096    1.67114   -0.11972
H     -0.26799   -0.41812   -0.14906
H      0.03692    3.85394   -0.50293
H     -2.72903   -0.29532   -0.55102
H     -4.58678    5.14548   -1.35611
H     -6.50136    3.47802   -2.28927
H     -6.57368    1.92927   -1.41214
H     -6.73472    3.47024   -0.54096
H      2.76089    7.14665   -3.43951
H      2.91554    6.41660   -1.82505
H      3.08967    5.42023   -3.28954
H     -2.67110    6.41233   -1.16737
H     -1.43199    5.79987   -0.06269
H     -2.16626    5.03567   -4.96493
H     -2.87639    4.62247   -3.49880
