41

C     -7.46221    4.77375   -7.98178
C     -6.18207    4.37098   -7.59635
C     -1.40477    0.53023   -1.27700
C     -1.89341   -0.76071   -1.09170
C     -2.73575    1.38502   -4.65555
C     -2.97161   -0.69023   -3.26987
C     -7.13762    3.49898   -5.55195
C     -2.48250    0.61694   -3.46619
C     -2.25067    2.64804   -4.80859
C     -8.59129    4.55533   -7.18315
C     -8.41665    3.90454   -5.94220
C     -6.01641    3.72476   -6.36620
C     -1.70066    1.21146   -2.45971
C     -2.67466   -1.36059   -2.09246
C     -1.45193    3.26131   -3.73086
C     -2.47384    3.43331   -6.05733
C     -9.95893    5.00844   -7.63849
C     -9.59800    3.64713   -5.03600
C     -1.26738    3.93391   -6.80787
N     -3.63978    3.67384   -6.55915
N     -4.76579    3.25080   -5.93017
O     -0.99903    4.38462   -3.73498
O     -1.20533    2.47542   -2.60524
Br    -3.33984   -3.13558   -1.82288
H     -7.58301    5.27739   -8.93868
H     -5.32052    4.55384   -8.22752
H     -0.79883    1.01688   -0.51925
H     -1.67138   -1.30092   -0.17743
H     -3.32541    0.93679   -5.45247
H     -3.57540   -1.15998   -4.04023
H     -7.00872    2.99776   -4.59316
H    -10.66226    4.16999   -7.71222
H    -10.40069    5.73193   -6.94234
H     -9.90668    5.48440   -8.62143
H    -10.10030    4.58110   -4.75812
H    -10.34953    3.01783   -5.52718
H     -9.29194    3.14502   -4.11430
H     -0.59079    3.10669   -7.05597
H     -1.59200    4.41693   -7.73159
H     -0.70392    4.65015   -6.20340
H     -4.70265    3.00371   -4.94389
