27

C      0.69793    1.00214    1.59358
C      0.63705    1.63711    2.84942
C      0.24554   -2.78819   -2.90466
C     -0.40357   -3.00162   -4.15556
C     -1.66695    0.36899    1.71929
C     -0.43126    0.39249    1.03872
C     -0.57463    1.59539    3.51228
C     -1.69558    0.97025    2.96046
C     -0.59806   -2.25259   -1.96304
C     -1.72296   -2.62181   -4.11391
C     -2.21979    1.64535    5.02789
N     -0.37138   -0.21348   -0.26685
O      1.26259   -2.27846   -0.14959
O     -1.16027   -2.46364    0.62443
O     -0.90664    2.14973    4.72933
O     -2.76952    1.11316    3.81156
S     -2.21052   -1.99904   -2.56463
S     -0.15353   -1.92036   -0.28320
Cl    -2.85909   -2.71119   -5.41169
H      1.64103    0.97369    1.05494
H      1.50425    2.12462    3.28239
H      1.28250   -3.02246   -2.69071
H      0.07154   -3.41406   -5.03818
H     -2.53615   -0.10806    1.28260
H     -2.13892    0.84186    5.77231
H     -2.84958    2.46396    5.38159
H      0.37468    0.19087   -0.83439
