34

C      1.07331    9.43214   -2.72278
C      2.01568    8.17104   -0.91319
C      0.17462    8.39668   -2.98187
C      1.12579    7.12435   -1.15439
C     -0.39356    2.57218   -0.38049
C     -0.42403    1.28146    0.06987
C     -1.30055    2.80185   -1.47159
C      2.01056    9.34405   -1.68370
C      0.19516    7.23374   -2.19792
C     -1.98227    1.63912   -1.79216
C     -1.48797    4.08037   -2.15949
C     -2.58606    4.22490   -3.19907
C     -3.75138    3.24473   -3.03467
C      2.95990   10.48132   -1.38421
N     -0.65662    5.03002   -1.85343
N     -0.73330    6.21653   -2.47497
O     -2.47405    1.35976   -4.39867
O     -4.23326    0.60651   -2.71769
S     -1.55416    0.28745   -0.79448
S     -3.16153    1.53269   -3.10896
H      1.04344   10.32335   -3.34576
H      2.73532    8.06925   -0.10336
H     -0.54018    8.49159   -3.79764
H      1.14706    6.22379   -0.55206
H      0.23890    3.34826    0.03281
H      0.15301    0.84766    0.87731
H     -3.01211    5.23407   -3.13998
H     -2.16521    4.10765   -4.20616
H     -4.26674    3.35583   -2.07818
H     -4.47095    3.33890   -3.85228
H      2.54895   11.14958   -0.61728
H      3.92123   10.11217   -1.01363
H      3.15316   11.08583   -2.27548
H     -1.28693    6.32037   -3.32050
