37

C      1.74254   -4.92341   -0.07459
C      1.05493   -3.79389   -0.51002
C      2.61583   -4.78458    1.00794
C     -1.87690   -1.88159   -1.74156
C      1.27160   -2.56402    0.11958
C     -0.95529   -1.26073   -2.51702
C      2.19465   -2.52733    1.18944
C     -1.26042   -0.89459   -3.90007
C     -3.52089   -1.87736   -3.51288
C      0.33349   -0.35416    0.72635
C      1.65093    0.20915    1.24628
C     -4.11800   -2.86003   -1.35739
C     -2.99428   -0.92180   -5.67548
N      2.83086   -3.62115    1.62631
N     -3.12204   -2.19025   -2.20303
N     -2.57261   -1.24424   -4.30356
N      0.54178   -1.40477   -0.28424
O     -0.48016   -0.34229   -4.65913
O     -4.64300   -2.15737   -3.91122
O      1.64675   -1.72632   -2.59173
O      0.82444    0.58389   -1.88416
S      2.61736   -1.07548    2.12096
S      0.68292   -0.87035   -1.91346
H      1.60427   -5.88573   -0.55742
H      0.37051   -3.85425   -1.35043
H      3.16965   -5.63922    1.39213
H     -1.65511   -2.15763   -0.71696
H     -0.24697   -0.79559    1.54306
H     -0.25680    0.44405    0.27504
H      2.22659    0.62941    0.41971
H      1.46590    0.99723    1.98147
H     -4.99748   -2.22432   -1.23872
H     -3.66880   -3.05675   -0.38358
H     -4.42805   -3.79932   -1.81856
H     -3.28038   -1.83737   -6.19643
H     -2.15366   -0.44494   -6.17378
H     -3.85444   -0.25011   -5.64739
