20

C      1.68728   -1.33467   -0.14482
C      0.59821   -0.66559    0.40910
C      2.97939   -4.64290   -2.59256
C      4.30867   -4.85867   -2.87748
C      2.80264   -1.69340    0.63216
C      0.60776   -0.36849    1.76770
C      2.78346   -1.37258    1.99950
C      1.69051   -0.72369    2.57138
C      3.86009   -3.28342   -1.08870
C      4.02020   -2.32308    0.03781
N      2.73740   -3.75318   -1.58169
O      5.14852   -2.07447    0.44953
F     -0.43291    0.26506    2.33563
F      3.78884   -1.71135    2.81484
F      1.68179   -0.44593    3.88369
S      5.31125   -3.91720   -1.84252
H      1.67882   -1.58172   -1.19812
H     -0.25829   -0.37600   -0.19068
H      2.14682   -5.11952   -3.09851
H      4.72942   -5.51572   -3.62807
