40

C     -1.00461    5.70226    2.86568
C     -0.98316    0.75864    6.09793
C     -3.36191    1.14372    6.09870
C     -0.75947    2.13795    6.14168
C     -3.15081    2.52017    6.15953
C     -2.28594    0.24187    6.06277
C     -1.84571    3.01859    6.15853
C     -2.40537    3.73693    3.43477
C     -3.09188    1.82107    2.66538
C     -1.53340    4.84433    3.89353
C     -3.09537    0.43899    2.10470
C     -2.40514    0.31954    0.73197
C     -0.87295    0.42534    0.76742
C     -0.29533    1.77478    1.22239
C     -0.57117    2.13181    2.68605
C     -2.53609   -1.24680    6.00349
N     -0.57042    6.31549    1.97333
N     -3.72306    3.75229    3.46453
N     -4.15881    2.53468    2.97977
N     -1.22590    5.16887    5.11596
N     -1.95360    2.54283    2.92130
N     -1.60237    4.44297    6.17819
H     -0.13320    0.07988    6.08277
H     -4.38108    0.76769    6.05816
H      0.25407    2.53186    6.14385
H     -3.98580    3.21166    6.15261
H     -2.61659   -0.24672    2.81820
H     -4.14419    0.14183    2.02758
H     -2.67083   -0.65371    0.30384
H     -2.81708    1.08040    0.05829
H     -0.47559   -0.36673    1.41802
H     -0.49019    0.21299   -0.23750
H      0.79338    1.74476    1.09817
H     -0.66157    2.58733    0.58421
H     -0.34358    1.28524    3.34273
H      0.06389    2.96294    2.99845
H     -2.85024   -1.63029    6.98131
H     -3.33237   -1.48618    5.29140
H     -1.63703   -1.79445    5.70704
H     -1.14189    4.79232    7.01074
