35

C      0.45744   -0.24771   -0.37570
C     -0.48847   -1.21661    0.00249
C     -4.62078   -3.46135   -3.87116
C     -4.58352   -2.58309   -6.12105
C      1.02074   -0.25263   -1.65321
C     -3.42753   -4.14443   -4.10317
C     -3.39231   -3.26160   -6.37633
C     -5.21359   -2.67161   -4.86879
C     -0.90625   -2.22359   -0.87185
C     -0.33822   -2.23644   -2.15952
C      0.60903   -1.25497   -2.53344
C     -2.82612   -4.03222   -5.35796
C      0.01776   -2.93427   -4.22715
C     -6.52017   -1.95976   -4.61274
C     -1.92895   -3.26248   -0.48838
N     -0.64686   -3.17032   -3.14422
N     -0.07228   -3.68785   -5.38373
O     -1.13863   -5.10376   -7.10829
O     -1.12441   -5.94231   -4.69165
S      1.12020   -1.53515   -4.19629
S     -1.28830   -4.87890   -5.66982
H      0.75563    0.51723    0.33593
H     -0.90752   -1.18340    1.00531
H     -5.09725   -3.54068   -2.89685
H     -5.03306   -1.98159   -6.90740
H      1.75044    0.49661   -1.94547
H     -2.95879   -4.74608   -3.33381
H     -2.91610   -3.20914   -7.35060
H     -7.36746   -2.60766   -4.86742
H     -6.62404   -1.68179   -3.56015
H     -6.60684   -1.05243   -5.21704
H     -2.83437   -3.15496   -1.09612
H     -1.54642   -4.27277   -0.66362
H     -2.20825   -3.17056    0.56449
H      0.28918   -3.30115   -6.25025
