29

C      0.96591   -5.55180  -10.77641
C      2.13260    1.49898   -4.26333
C      2.39139    1.97913   -5.55965
C     -0.12790   -5.92409  -11.56452
C      0.78773   -5.30079   -9.41624
C      1.60479    0.22025   -4.04159
C      2.13091    1.19353   -6.69421
C     -1.39429   -6.05139  -10.98835
C     -0.47974   -5.41242   -8.80963
C      1.34152   -0.57138   -5.16225
C      1.61059   -0.06470   -6.44457
C     -1.55711   -5.79887   -9.62550
C      0.80272   -2.07816   -6.55426
C     -0.64031   -5.19648   -7.35084
N      0.82429   -1.87123   -5.27593
N     -0.20744   -4.21201   -6.64254
N      0.43354   -3.18730   -7.27050
O      1.25780   -1.05115   -7.35873
Br    -3.31526   -5.97380   -8.87651
H      1.95499   -5.46560  -11.21716
H      2.34829    2.13863   -3.41181
H      2.80063    2.97703   -5.68873
H     -0.00009   -6.12054  -12.62537
H      1.64290   -5.04228   -8.79779
H      1.40527   -0.14892   -3.04022
H      2.32517    1.55132   -7.70054
H     -2.24876   -6.34183  -11.59084
H     -1.18381   -5.94867   -6.78427
H      0.38394   -3.07748   -8.28216
