22

C      0.34404   -0.51118   -2.22496
C     -0.43504   -0.14382   -1.08227
C     -0.40682   -0.49980   -3.36285
C     -1.74978    0.11915   -1.37294
C     -1.48842   -4.81474    0.38915
C     -0.82157   -2.56897    0.89746
C     -2.05981   -6.19501    0.30835
N     -0.65478   -4.31407   -0.47107
N     -0.27118   -3.02396   -0.19008
N     -0.58766   -1.30095    1.41605
O     -0.11352    1.12550    1.24285
O      1.66430   -0.51018    0.42040
S     -2.07734   -0.06332   -3.07136
S     -1.89540   -3.69912    1.70217
S      0.27828   -0.09628    0.54858
Cl     0.11622   -0.87627   -4.96352
Cl    -3.02139    0.52982   -0.28493
H      1.38954   -0.78670   -2.16862
H     -1.78408   -6.79044    1.18448
H     -3.15239   -6.17052    0.24625
H     -1.66462   -6.67912   -0.58662
H     -1.31158   -0.88441    1.99462
