35

C     -1.16059   -0.99337   -1.47602
C     -1.87406   -2.19989   -1.59000
C     -2.13873   -6.68963   -6.44549
C     -1.38111   -6.23430   -8.69378
C     -0.07497   -0.71763   -2.30912
C     -0.87759   -6.37542   -5.94187
C     -0.11115   -5.91697   -8.21201
C     -2.41025   -6.62416   -7.82167
C     -1.53466   -3.17318   -2.53308
C     -0.44003   -2.90124   -3.37531
C      0.27342   -1.68599   -3.25287
C      0.12125   -5.99000   -6.83739
C      1.03080   -3.25144   -4.98820
C     -3.77252   -6.99758   -8.35497
C     -2.28500   -4.47358   -2.67009
N      0.01398   -3.75824   -4.37175
N      1.67659   -3.86769   -6.04933
O      2.73286   -5.73992   -7.28377
O      1.91841   -6.21038   -4.90885
S      1.57880   -1.65118   -4.43504
S      1.74190   -5.59001   -6.21617
H     -1.45744   -0.26378   -0.72766
H     -2.71508   -2.38153   -0.92513
H     -2.92563   -6.98879   -5.75708
H     -1.57339   -6.18189   -9.76263
H      0.47586    0.21395   -2.22007
H     -0.66577   -6.41180   -4.88009
H      0.68953   -5.62892   -8.88583
H     -3.83466   -8.07858   -8.52857
H     -4.56418   -6.73324   -7.64802
H     -3.98124   -6.49883   -9.30543
H     -2.65396   -4.60448   -3.69272
H     -1.62906   -5.32464   -2.45655
H     -3.13486   -4.51212   -1.98354
H      2.53036   -3.44646   -6.40663
