29   

C        3.0827048841   -2.8217956098    0.6819696164
C        2.4556828686   -1.6310185745    0.3063196050
C        2.8673837515   -3.3459158939    1.9592510814
C        1.6121745929   -0.9684501130    1.2051905349
C        2.0308502071   -2.6772643741    2.8600250006
C       -0.1577454358   -4.4163158668    5.7023317013
C       -0.0377627488   -5.6847754056    5.1287153928
C       -1.3789149745   -3.6781671409    3.7571548766
C        1.3909331718   -1.4815425091    2.4939293585
C       -0.8177602732   -3.3955088425    5.0108849016
C       -0.5735508966   -5.9593799019    3.8638644183
C       -1.2571971930   -4.9434946519    3.1715087402
C        0.5091501165   -0.7873169015    3.4275816395
C        0.3878060838   -0.8933446838    4.8032310948
O       -2.2147205799   -1.0958470385    5.3467309252
O       -0.6358619551   -1.7070657760    7.1429247390
S       -0.9261336337   -1.7117408648    5.7003690675
Cl      -0.3814024043   -7.5553169370    3.1717065042
Cl      -1.9480775067   -5.2292143954    1.5886829513
H        3.7341605856   -3.3369853062   -0.0152437558
H        2.6234249597   -1.2193705802   -0.6826573263
H        3.3487112128   -4.2719108270    2.2528809533
H        1.1350896492   -0.0447512030    0.8964624040
H        1.8740165190   -3.0979711763    3.8466501613
H        0.2668474733   -4.2216925567    6.6844562592
H        0.4794988178   -6.4709219388    5.6661328200
H       -1.9104912245   -2.9003095568    3.2159657278
H       -0.1567238507   -0.0574497479    2.9776258127
H        1.1756149055   -0.5074169050    5.4304765202
29   

C        2.8590989915   -3.1018710584    0.8812191830
C        2.1717216410   -1.9876134271    0.3940685214
C        2.8006770545   -3.4115593420    2.2421174095
C        1.4214274588   -1.1898079800    1.2652012860
C        2.0565932819   -2.6081293597    3.1130895239
C       -0.0688328108   -4.3959113038    5.5514002615
C        0.1165866472   -5.6109789567    4.8865662767
C       -1.2398886405   -3.5466504762    3.6210023838
C        1.3501342919   -1.4909951026    2.6357523453
C       -0.7338046806   -3.3440528628    4.9132752846
C       -0.3570744493   -5.8005201241    3.5818460909
C       -1.0493381278   -4.7559336360    2.9432815559
C        0.5415697750   -0.6668667387    3.5329816962
C        0.3628656861   -0.7591282830    4.8918645275
O       -2.2272562881   -1.1359438017    5.4094050785
O       -0.6265093597   -1.8002066950    7.1584496535
S       -0.9112073709   -1.7173103522    5.7170195953
Cl      -0.0762978701   -7.3270234766    2.7733971419
Cl      -1.6611617548   -4.9340068250    1.3129150029
H        3.4361488913   -3.7235044673    0.2055817284
H        2.2177126590   -1.7422156883   -0.6610801862
H        3.3314661333   -4.2762484200    2.6239589997
H        0.8911581391   -0.3322845441    0.8658582750
H        2.0251477275   -2.8634918358    4.1657687167
H        0.3117837610   -4.2653244731    6.5616815461
H        0.6393453505   -6.4205058018    5.3821268532
H       -1.7747154917   -2.7452629003    3.1191707188
H        0.0258682273    0.1667530871    3.0667193705
H        0.9931105523   -0.1870323208    5.5544734316
29   

C        2.7120404216   -3.3434086999    1.1798142650
C        1.8927411052   -2.3836126382    0.5806415746
C        2.8500368854   -3.3665639174    2.5695483352
C        1.2056804242   -1.4550856103    1.3707141355
C        2.1641006246   -2.4362484221    3.3579078587
C        0.0649016933   -4.3430086017    5.2749192648
C        0.2755023765   -5.4850235514    4.4977040349
C       -1.2184142356   -3.3827356343    3.4726389587
C        1.3233561206   -1.4752888117    2.7703028578
C       -0.6666433430   -3.2694205413    4.7570599875
C       -0.2374109132   -5.5786698271    3.1975291012
C       -1.0001212148   -4.5158450746    2.6811919031
C        0.5569883417   -0.5315974344    3.5915111066
C        0.3097579057   -0.6052979790    4.9287815607
O       -2.2253325073   -1.1870356274    5.5220838386
O       -0.5132979210   -1.9181661531    7.1198084414
S       -0.8679583327   -1.7244330323    5.7045950168
Cl       0.0841295990   -7.0092546178    2.2423629490
Cl      -1.6615977201   -4.5743658622    1.0616108810
H        3.2391386961   -4.0672956809    0.5682602236
H        1.7850115174   -2.3621074491   -0.4980375784
H        3.4863505247   -4.1084674328    3.0382933186
H        0.5665460142   -0.7245897258    0.8872347595
H        2.2813256554   -2.4698074889    4.4351246855
H        0.4803334846   -4.2839113897    6.2779721711
H        0.8518458255   -6.3097930809    4.8994533085
H       -1.8061063859   -2.5654810120    3.0648736674
H        0.1763111055    0.3500586115    3.0856385362
H        0.7146117865    0.1417883976    5.5935891381
29   

C        2.6383028196   -3.4113004814    1.2928374286
C        1.8111994274   -2.4788445866    0.6619199962
C        2.8051118224   -3.3638865869    2.6789176937
C        1.1445487506   -1.5075673284    1.4172635360
C        2.1382316362   -2.3917168331    3.4325756092
C        0.0749105740   -4.3635869643    5.1655002548
C        0.2886591748   -5.4891637455    4.3660521666
C       -1.2221365635   -3.3755114297    3.3883744353
C        1.2882190430   -1.4597054698    2.8135285382
C       -0.6651248872   -3.2838767359    4.6721013281
C       -0.2293517690   -5.5605712074    3.0667666399
C       -1.0002524119   -4.4921682302    2.5742253080
C        0.5491190935   -0.4630326373    3.6015159598
C        0.1777163589   -0.5370859577    4.9009296734
O       -2.2813187320   -1.3051947912    5.5729211027
O       -0.4672473281   -1.9894262968    7.0582288886
S       -0.8888016516   -1.7705383933    5.6650201126
Cl       0.0950867750   -6.9714584659    2.0837334660
Cl      -1.6694878704   -4.5246732513    0.9571741203
H        3.1496872562   -4.1681441617    0.7084502815
H        1.6819214246   -2.5115419578   -0.4141112095
H        3.4489270967   -4.0832940066    3.1718094031
H        0.4999661963   -0.7976123589    0.9109406278
H        2.2775251199   -2.3676969740    4.5076475847
H        0.4922177041   -4.3230443433    6.1687114802
H        0.8703876425   -6.3184254719    4.7503802738
H       -1.8184230575   -2.5550906368    3.0003641181
H        0.3117640886    0.4650492305    3.0911473893
H        0.3754608255    0.3024272267    5.5494973049
29   

C        3.1676539301   -3.5334462140    1.9163638012
C        2.1351560636   -3.0602531373    1.1019230357
C        3.3175249274   -3.0282933849    3.2105817472
C        1.2538763328   -2.0843675999    1.5812672687
C        2.4326551035   -2.0566448107    3.6904314965
C        0.1842476463   -4.2671268945    4.4960818514
C        0.0636550292   -5.2718877439    3.5353411013
C       -1.7897351033   -3.2031774176    3.6097785849
C        1.3863902772   -1.5765131221    2.8832335265
C       -0.7305687068   -3.2087662356    4.5275260295
C       -0.9714974455   -5.2471560234    2.5941902055
C       -1.9149879136   -4.2036157209    2.6368354628
C        0.4412454624   -0.5694488990    3.3935683275
C        0.0186328725   -0.4506164304    4.6670491825
O       -1.7868683652   -1.4782321376    6.3419826410
O        0.5429037082   -2.1440267069    6.6846079795
S       -0.5093428163   -1.8299401467    5.7032337407
Cl      -1.0656423627   -6.5071849900    1.3833770593
Cl      -3.2294615011   -4.1239118221    1.4840692697
H        3.8518794882   -4.2879157366    1.5442466141
H        2.0152437963   -3.4509864281    0.0976477392
H        4.1200614838   -3.3872751241    3.8452954832
H        0.4535660674   -1.7334657439    0.9392782334
H        2.5618382438   -1.6742825982    4.6983374865
H        1.0067270839   -4.2957363076    5.2064247865
H        0.7894510039   -6.0757958539    3.5080177305
H       -2.5197410348   -2.3994763665    3.6348167360
H        0.0786712019    0.1633539989    2.6798959492
H       -0.2216000231    0.5206640592    5.0713858832
29   

C        3.1551147215   -3.5512156882    1.9809248001
C        2.1284481213   -3.0785934687    1.1586899406
C        3.3188393334   -3.0182601150    3.2623955442
C        1.2672686221   -2.0753319980    1.6175698035
C        2.4533931743   -2.0195555556    3.7218809953
C        0.1933130646   -4.2720061097    4.4212814394
C        0.0500177100   -5.2761066010    3.4631455898
C       -1.7967683635   -3.2031855876    3.5784970309
C        1.4135482124   -1.5401628956    2.9068730432
C       -0.7192077478   -3.2124674076    4.4743682883
C       -1.0055609855   -5.2492260128    2.5451854437
C       -1.9451862613   -4.2031675298    2.6081441852
C        0.4914195913   -0.4965766593    3.3940130478
C       -0.0667401049   -0.4280106557    4.6129763685
O       -1.7228730077   -1.5482876696    6.3760141074
O        0.6447349544   -2.1316468380    6.5668174007
S       -0.4748764917   -1.8412608197    5.6546260127
Cl      -1.1298671394   -6.5100413271    1.3378926943
Cl      -3.2846539970   -4.1209169442    1.4846955234
H        3.8242435433   -4.3265499259    1.6246066710
H        1.9975740047   -3.4905518936    0.1643175382
H        4.1169766435   -3.3762716174    3.9032002761
H        0.4714808796   -1.7235861245    0.9704188960
H        2.5929247970   -1.6145934233    4.7195917695
H        1.0308162442   -4.3028995817    5.1137489313
H        0.7733845312   -6.0815215312    3.4203960789
H       -2.5245532689   -2.3982612959    3.6195189536
H        0.2407905550    0.2911438511    2.6908092000
H       -0.4495022925    0.5116030796    4.9809129139
29   

C        3.1275709890   -3.5690429681    2.0181366329
C        2.1015643345   -3.0810684076    1.2039877350
C        3.3176012418   -3.0296322112    3.2934491281
C        1.2679347948   -2.0556995635    1.6646969510
C        2.4790381023   -2.0088944629    3.7547796201
C        0.2037206201   -4.2808645243    4.4061167159
C        0.0622451606   -5.2909268962    3.4539566354
C       -1.7950320299   -3.2273242068    3.5650702001
C        1.4412729649   -1.5138681593    2.9476182170
C       -0.7149048674   -3.2266637478    4.4578237400
C       -0.9970605090   -5.2748654434    2.5400534351
C       -1.9417382758   -4.2332602816    2.6006254682
C        0.5488647022   -0.4412576017    3.4356859218
C       -0.1477296657   -0.4286973687    4.5801756972
O       -1.7123648751   -1.5977880579    6.3909869609
O        0.6770385832   -2.1087512174    6.5122642055
S       -0.4769931785   -1.8506471920    5.6335721607
Cl      -1.1197422246   -6.5434322037    1.3407297644
Cl      -3.2859631368   -4.1642960488    1.4819330577
H        3.7756171144   -4.3613880084    1.6603088447
H        1.9498044554   -3.4979471984    0.2146457020
H        4.1151025860   -3.3998034567    3.9280843540
H        0.4723808973   -1.6907369052    1.0245904755
H        2.6371866220   -1.5986969223    4.7475691082
H        1.0439164398   -4.3033955062    5.0955998039
H        0.7897267717   -6.0926889833    3.4129610817
H       -2.5268572100   -2.4260477128    3.6041051624
H        0.4154270927    0.4061008511    2.7708478631
H       -0.6436488123    0.4749323015    4.9000976949
29   

C        1.9929508636   -3.0252091368    0.8731625616
C        1.0931119997   -1.9558510477    0.8726496155
C        2.7099201143   -3.3288097997    2.0337722292
C        0.9060537866   -1.1967875956    2.0332351087
C        2.5258534300   -2.5647944398    3.1917435310
C       -0.2611896650   -3.9911352513    5.4253914741
C        0.1592848297   -5.2871381600    5.1152572114
C       -0.9294686372   -3.6838788388    3.1295109064
C        1.6157291648   -1.4970033359    3.2072990660
C       -0.7924957602   -3.1691195109    4.4270582722
C        0.0484652638   -5.7902071284    3.8127793835
C       -0.5110395260   -4.9802659794    2.8086202293
C        1.4060280251   -0.7056417971    4.4417799888
C        0.2770703249   -0.6177839738    5.1553639018
O       -1.9174151902   -0.8275146961    3.6143770920
O       -2.1290478318   -1.3929741279    5.9856428227
S       -1.2765517802   -1.4461422823    4.7877277856
Cl       0.6084518664   -7.4105949029    3.4612425640
Cl      -0.6806518085   -5.5581498964    1.1647374595
H        2.1322388605   -3.6191962037   -0.0233481348
H        0.5353249342   -1.7155442424   -0.0256322749
H        3.4058184140   -4.1601387772    2.0374919114
H        0.2000930388   -0.3719114199    2.0222337292
H        3.0830344024   -2.8146175964    4.0875857096
H       -0.1653957333   -3.6185464397    6.4415549664
H        0.5815600245   -5.9155640185    5.8902908892
H       -1.3527820747   -3.0623525402    2.3454103344
H        2.2841224980   -0.2118289239    4.8453296191
H        0.2489754895   -0.0137714749    6.0492744842
29   

C        2.0058660653   -3.0173965098    0.8419778697
C        1.0975148703   -1.9562504071    0.8807615693
C        2.7354162227   -3.3488428275    1.9869296264
C        0.9136155959   -1.2341069134    2.0649817463
C        2.5541819512   -2.6220805418    3.1691647814
C       -0.2803907485   -3.9695837037    5.4410528058
C        0.1474846177   -5.2670952042    5.1477146030
C       -0.9390237428   -3.6917469057    3.1385428284
C        1.6336162947   -1.5642902764    3.2254498053
C       -0.8098096741   -3.1612052447    4.4306061623
C        0.0462057392   -5.7851265775    3.8503006135
C       -0.5121532998   -4.9893107944    2.8342872413
C        1.4256990953   -0.8172853644    4.4828525855
C        0.2570139186   -0.5880982184    5.0975551352
O       -1.9577073724   -0.8389873275    3.5931112051
O       -2.1332705482   -1.3617554737    5.9757350243
S       -1.2969987932   -1.4340557103    4.7674585603
Cl       0.6168241241   -7.4061874016    3.5195960132
Cl      -0.6689020094   -5.5856110029    1.1957584736
H        2.1428650923   -3.5826640922   -0.0732559719
H        0.5310472202   -1.6930091952   -0.0056074736
H        3.4390862538   -4.1731640209    1.9595096344
H        0.2028332368   -0.4135338646    2.0812731787
H        3.1216210020   -2.8949241792    4.0517312353
H       -0.1910924074   -3.5847993021    6.4532927111
H        0.5687482423   -5.8848145431    5.9318560435
H       -1.3611718404   -3.0812377862    2.3451808363
H        2.3212956482   -0.4531583060    4.9758573033
H        0.2095916841    0.1021316044    5.9258514713
29   

C        2.0454125036   -3.0038597252    0.8246834035
C        1.1179178121   -1.9606046984    0.8843991544
C        2.7789549068   -3.3465131708    1.9637079955
C        0.9186689672   -1.2678609045    2.0834584487
C        2.5821191539   -2.6495400131    3.1613485536
C       -0.2970603884   -3.9445751736    5.4543967044
C        0.1417117782   -5.2390968310    5.1638137160
C       -0.9605261318   -3.6784291849    3.1517665862
C        1.6419007246   -1.6102842881    3.2391436890
C       -0.8334334044   -3.1430317109    4.4421142420
C        0.0447858010   -5.7607910472    3.8674863708
C       -0.5216170909   -4.9724880001    2.8500815855
C        1.4140846867   -0.9000541771    4.5103590949
C        0.2256777130   -0.5425296280    5.0241797964
O       -2.0413553564   -0.8477057088    3.6165107658
O       -2.1177148251   -1.3336653379    6.0120098494
S       -1.3288064744   -1.4169174453    4.7729807657
Cl       0.6309748960   -7.3768873745    3.5397656061
Cl      -0.6725245673   -5.5731229291    1.2126222409
H        2.1945125142   -3.5462226279   -0.1024376288
H        0.5486797337   -1.6883604508    0.0025241099
H        3.4979790769   -4.1567422895    1.9195904493
H        0.1930822192   -0.4607704271    2.1143083497
H        3.1530152910   -2.9324681858    4.0384697919
H       -0.2103352786   -3.5563278860    6.4656018133
H        0.5687794836   -5.8513856828    5.9490735376
H       -1.3888494175   -3.0737978701    2.3571827018
H        2.2985530069   -0.6430930707    5.0842760159
H        0.1707708009    0.2408619464    5.7644285730
29   

C        2.1004505244   -3.0168034609    0.8191623786
C        1.1511826362   -1.9935991975    0.8806740173
C        2.8271228892   -3.3591096833    1.9626328017
C        0.9235400162   -1.3204714619    2.0857399204
C        2.6015337665   -2.6822639898    3.1667796204
C       -0.3173977087   -3.9387861191    5.4486816452
C        0.1291771566   -5.2253706395    5.1359276969
C       -1.0182707717   -3.6513025743    3.1595555749
C        1.6397857365   -1.6628277964    3.2464335943
C       -0.8752063695   -3.1298667878    4.4538762070
C        0.0191232224   -5.7316874703    3.8345644457
C       -0.5704313317   -4.9368843180    2.8354468611
C        1.3773105948   -0.9788394459    4.5233383938
C        0.1853130969   -0.5072739618    4.9364785143
O       -2.1748747438   -0.8581579226    3.7068374600
O       -2.0681481917   -1.3279571994    6.1051945271
S       -1.3724491886   -1.4097516955    4.8113919302
Cl       0.6184258577   -7.3367790084    3.4778732290
Cl      -0.7375963301   -5.5181497073    1.1926418612
H        2.2717688775   -3.5438065250   -0.1129597576
H        0.5871819461   -1.7220663890   -0.0047666129
H        3.5632147685   -4.1537644995    1.9167858310
H        0.1804143029   -0.5295805693    2.1172299252
H        3.1674355612   -2.9661856471    4.0467807816
H       -0.2192905497   -3.5615969166    6.4631346676
H        0.5735441122   -5.8429825539    5.9073052548
H       -1.4643024474   -3.0412659133    2.3789614161
H        2.2311490270   -0.8112291650    5.1718000182
H        0.1350024241    0.3730632494    5.5585776099
29   

C        2.2159812442   -3.0960851165    0.8618809564
C        1.2201575577   -2.1165919985    0.8824424319
C        2.9349294350   -3.3793409371    2.0261205901
C        0.9388632692   -1.4281616503    2.0673542292
C        2.6543705420   -2.6882091394    3.2104844790
C       -0.2940516432   -3.9445761426    5.4073773832
C        0.1525197856   -5.2094913259    5.0174063739
C       -1.1472660357   -3.5834660082    3.1810157991
C        1.6462131362   -1.7119363057    3.2490636939
C       -0.9270381307   -3.1086892061    4.4819918832
C       -0.0313521280   -5.6672633365    3.7066300462
C       -0.6984087371   -4.8469226879    2.7790891829
C        1.3243839411   -1.0170007913    4.5043598840
C        0.1282838398   -0.4729685229    4.8271813230
O       -2.3860001742   -0.8648611692    3.9773403295
O       -1.8971349343   -1.3594616039    6.3247345659
S       -1.4112127850   -1.4088173065    4.9367836589
Cl       0.5745721362   -7.2440780044    3.2493428531
Cl      -0.9582678542   -5.3679259813    1.1282706112
H        2.4296044328   -3.6344756408   -0.0548625705
H        0.6620450180   -1.8915576943   -0.0195531284
H        3.7080922993   -4.1392125924    2.0116354913
H        0.1606620849   -0.6716173551    2.0670763669
H        3.2155912031   -2.9270296591    4.1067087398
H       -0.1357893172   -3.6033012164    6.4271012332
H        0.6562898163   -5.8467534317    5.7343829360
H       -1.6530880042   -2.9524146537    2.4556241363
H        2.1360061931   -0.8841812789    5.2123515793
H        0.0776263481    0.5152002661    5.2575652298
29   

C        2.6769528781   -3.3423008221    1.2095418801
C        1.4367114885   -2.7072678916    1.1136488574
C        3.4648401751   -3.1557062040    2.3481323647
C        0.9840388578   -1.8921570987    2.1566483372
C        3.0073343613   -2.3449829252    3.3934404936
C       -0.1473044138   -3.9494778994    4.9855040239
C        0.1562913553   -5.1446148837    4.3320083540
C       -1.7287874975   -3.4167047182    3.2438808196
C        1.7560300269   -1.7111318615    3.3170730880
C       -1.0746682906   -3.0604209327    4.4313784166
C       -0.4659189248   -5.4830375144    3.1249736892
C       -1.4286441365   -4.6132602340    2.5794628304
C        1.2673555624   -0.8976570741    4.4350585254
C        0.0007845896   -0.4420834512    4.6481393599
O       -2.6472965883   -0.8558690652    4.7481416423
O       -1.3129641433   -1.5648044794    6.6815700696
S       -1.3825302856   -1.4441575034    5.2166551981
Cl      -0.0303274164   -6.9743876495    2.3196064765
Cl      -2.2405229231   -4.9904793987    1.0758168129
H        3.0269975683   -3.9755216221    0.4017955874
H        0.8223649526   -2.8475469676    0.2312640684
H        4.4307166181   -3.6426589066    2.4223906734
H        0.0209569579   -1.4034778836    2.0621981615
H        3.6298279836   -2.2185156407    4.2722158003
H        0.3543560040   -3.6998258716    5.9168004930
H        0.8921663416   -5.8169376770    4.7567561133
H       -2.4689999634   -2.7470168299    2.8145683771
H        2.0120116595   -0.5756478801    5.1559930194
H       -0.2001921681    0.6177691011    4.6288998722
29   

C        3.0106099407   -3.2112023706    1.1642684942
C        1.6684284355   -2.8281284240    1.1084068442
C        3.7865684760   -2.8578719054    2.2710476144
C        1.1046979814   -2.0933534117    2.1570351425
C        3.2185882967   -2.1300531387    3.3230280000
C       -0.2837918582   -3.9985080160    4.9701365341
C       -0.1003242405   -5.2144149365    4.3105053207
C       -1.9591200667   -3.3868321409    3.3459314461
C        1.8688635228   -1.7415967136    3.2828036226
C       -1.2007499386   -3.0626486316    4.4792520609
C       -0.8324447939   -5.5261973364    3.1592917929
C       -1.7799081473   -4.6043589551    2.6756111458
C        1.2769913305   -1.0028857039    4.3975854594
C       -0.0020855130   -0.5246148487    4.5430945662
O       -2.6424675473   -0.7913246449    4.9279901398
O       -1.1428570698   -1.5483857130    6.7284071314
S       -1.3654795570   -1.4326158144    5.2783610517
Cl      -0.5520611197   -7.0505776540    2.3465875138
Cl      -2.7258151656   -4.9465762281    1.2435777127
H        3.4485163757   -3.7786967292    0.3505342842
H        1.0618544356   -3.0998953046    0.2516984140
H        4.8300765409   -3.1491085007    2.3150469984
H        0.0634004369   -1.8006215485    2.0918684147
H        3.8368558581   -1.8688779198    4.1747701178
H        0.2999708570   -3.7726739333    5.8589018965
H        0.6248554571   -5.9257148500    4.6879879868
H       -2.6910838717   -2.6788614186    2.9663926383
H        1.9466467225   -0.7687141934    5.2190445151
H       -0.2404901069    0.4817960641    4.2367366844
29   

C        3.4365493519   -2.9928041623    1.0959569795
C        2.0396927000   -2.9561441501    1.1021388116
C        4.1498833612   -2.4219841441    2.1532314087
C        1.3587972889   -2.3449566785    2.1608875273
C        3.4670164191   -1.8190308183    3.2157468317
C       -0.4924769563   -4.1049134572    4.9853548064
C       -0.4781480577   -5.3502583192    4.3554554207
C       -2.1911697350   -3.3611430008    3.4421960649
C        2.0632571542   -1.7704198418    3.2319095748
C       -1.3390590711   -3.0920179416    4.5221490368
C       -1.3103752833   -5.6133114437    3.2612294260
C       -2.1821884099   -4.6078711704    2.8023941335
C        1.3546585436   -1.1353721192    4.3402092845
C        0.0527815110   -0.6746322947    4.4313703258
O       -2.5565965059   -0.7083197150    5.0328799697
O       -0.9771580570   -1.5576866243    6.7277626615
S       -1.3104751745   -1.4436780373    5.2988724073
Cl      -1.2485608199   -7.1827867093    2.4891512229
Cl      -3.2480216675   -4.8858727588    1.4422972819
H        3.9649963007   -3.4610330039    0.2728636643
H        1.4818957571   -3.4003085016    0.2852608795
H        5.2339427252   -2.4440348597    2.1491855476
H        0.2751175589   -2.3242760597    2.1487167765
H        4.0373178310   -1.3780945996    4.0259738278
H        0.1622244252   -3.9208017903    5.8336405146
H        0.1884849880   -6.1256846754    4.7145726701
H       -2.8694324795   -2.5905755243    3.0850976774
H        1.9435360619   -0.9851050525    5.2396601382
H       -0.2252325662    0.2107955161    3.8818938646
