41

C     -2.90167    0.43169    1.37204
C     -2.13246   -1.46347    2.64247
C     -4.22205    0.01195    1.51793
C     -3.45081   -1.90206    2.79660
C     -2.11479    1.91645    5.28267
C     -0.34178    0.87021    4.84126
C     -1.84138   -0.30848    1.91371
C     -4.48661   -1.16418    2.22440
C      1.12628    1.02136   -0.30160
C     -0.27605    1.39947   -0.69566
C     -0.04389    0.20744    0.21012
C     -2.04827   -2.91627   -1.95199
C     -0.20202    1.53533    2.39372
C     -1.93415   -1.70085   -1.03255
C     -0.39435    0.15301    1.71660
N     -1.18397    1.08683    5.84273
N     -1.89912    2.22384    4.00910
N     -0.74355    1.54737    3.73786
O      0.25136   -2.44726    0.32027
O      0.52955   -1.27880   -1.93257
O      0.53531   -0.68276    2.39710
S     -0.17939   -1.40545   -0.64690
Cl    -6.14461   -1.71064    2.40106
H     -2.70971    1.34832    0.82390
H     -1.32568   -2.03201    3.09017
H     -5.03752    0.59027    1.09552
H     -3.66894   -2.80555    3.35702
H     -2.96738    2.30637    5.82362
H      0.53826    0.24262    4.85236
H      1.75104    0.57015   -1.06401
H      1.65004    1.62674    0.42896
H     -0.72727    2.28590   -0.26358
H     -0.56857    1.19903   -1.72197
H     -1.51589   -2.75567   -2.89148
H     -1.64929   -3.81136   -1.46843
H     -3.10613   -3.08840   -2.17121
H      0.86658    1.75141    2.43827
H     -0.71317    2.33311    1.85946
H     -2.44431   -1.85409   -0.08349
H     -2.30582   -0.78708   -1.50199
H      0.61119   -1.52300    1.89691
