53

C     -1.94916    0.92548   -0.22346
C     -2.91902    0.02475    0.21869
C      1.37869   -5.04279   -0.43716
C      0.45744   -3.33826   -1.90899
C      0.08570   -5.42422   -0.07057
C     -0.83336   -3.70692   -1.53664
C     -1.20015   -1.54693    0.99997
C     -0.21543   -0.64441    0.56008
C      1.22225   -0.66315    0.57212
C     -0.60564    0.58112   -0.05168
C     -2.52364   -1.18146    0.81792
C      1.55274   -3.99930   -1.34628
C     -1.00707   -4.74696   -0.61766
C      1.65270    0.51315   -0.00336
C      1.11428    3.15862    1.66363
C      2.16835   -1.73719    1.02178
C      3.08514    0.88209   -0.25390
C      4.02624   -0.16683    0.38129
C      3.49673   -1.60560    0.24826
C      1.19442    1.81192    3.60310
C      0.24768    3.57692    0.49452
C      0.58571    2.69049   -0.72671
N      0.55148    1.27063   -0.41230
N      3.39194   -1.90189   -1.19468
O      2.30771    3.38855    1.75398
O      4.15033   -4.29902   -1.02086
O      3.26221   -3.32882   -3.23055
O      0.41709    2.43026    2.55611
F     -3.50325   -2.02987    1.23916
S      3.21646   -3.46083   -1.77438
Cl    -2.62585   -5.19478   -0.13266
H     -2.24715    1.86035   -0.68957
H     -3.97770    0.23866    0.11222
H      2.24722   -5.54201   -0.01956
H      0.60387   -2.54070   -2.63110
H     -0.07238   -6.23405    0.63446
H     -1.69537   -3.18909   -1.94305
H     -0.95429   -2.49614    1.46485
H      2.38744   -1.65284    2.09514
H      1.73091   -2.72751    0.88047
H      3.27001    0.95241   -1.33538
H      3.31942    1.86760    0.15989
H      5.01653   -0.09547   -0.07558
H      4.13739    0.05077    1.44893
H      4.23485   -2.30316    0.64915
H      0.47337    1.27965    4.22215
H      1.72680    2.56796    4.18398
H      1.91025    1.11353    3.16273
H      0.46215    4.62031    0.24800
H     -0.80569    3.47676    0.75970
H     -0.11923    2.90073   -1.53682
H      1.58405    2.93386   -1.09278
H      2.79101   -1.26783   -1.71673
