32

C      1.59684   -2.70389    1.75716
C      0.23977   -3.02352    1.56658
C      2.08901   -1.50504    1.25907
C     -0.61513   -2.15037    0.90048
C      1.24628   -0.61262    0.57022
C     -0.11619   -0.93693    0.40501
C      1.78088    0.62611   -0.02793
C     -2.57674    0.22219   -3.10560
C      0.80179    1.35397   -0.93527
C     -0.63790    1.26703   -0.41756
C     -2.35568   -0.41824   -4.46601
C     -0.81319    2.01407    0.90953
C     -1.65511    1.80562   -1.43906
N     -1.62353    1.13917   -2.72575
O      2.92914    1.02259    0.13982
O     -3.54052   -0.06466   -2.40261
O     -1.00443   -0.12454   -0.22934
H      2.25133   -3.39186    2.28431
H     -0.15378   -3.96129    1.95069
H      3.13295   -1.22791    1.37358
H     -1.66728   -2.37785    0.75827
H      1.12121    2.39280   -1.04904
H      0.86477    0.86466   -1.91592
H     -2.18683   -1.48899   -4.32079
H     -3.26619   -0.30603   -5.05952
H     -1.51026   -0.00054   -5.02075
H     -1.84270    1.91112    1.26303
H     -0.58927    3.07787    0.78196
H     -0.14521    1.62157    1.68060
H     -1.48147    2.87940   -1.57063
H     -2.66008    1.66408   -1.03669
H     -0.88357    1.36027   -3.37644
