49

C     -5.26385   -1.44075   -2.97224
C     -5.45855   -0.40889   -2.04377
C     -3.88174   -1.43132   -0.52514
C     -0.87649   -6.34992    2.05185
C      0.22124   -6.72519    1.25274
C     -4.37874   -2.47243   -2.66718
C     -3.69591   -2.45904   -1.44592
C     -4.77875   -0.38845   -0.81518
C      0.24095   -6.16229   -0.05850
C     -1.71628   -5.04094    0.41049
C      1.26254   -7.64656    1.77105
C     -3.97483   -3.68345   -3.48122
C     -2.77722   -3.65890   -1.35483
C     -3.35494   -4.64116   -2.42739
C     -5.02640    0.71579    0.18778
C     -4.40998   -5.58624   -1.84445
C      1.12139   -5.78519   -2.43036
C      2.23911   -9.14204    3.58933
C      1.32249   -6.45735   -1.07170
C      1.10397   -8.19974    3.19020
N     -1.84441   -5.52571    1.66907
N     -0.72764   -5.33644   -0.45751
N     -2.67609   -4.17511   -0.00023
O      2.24002   -7.97209    1.09833
H     -5.80513   -1.43269   -3.91598
H     -6.15394    0.39483   -2.27710
H     -3.33347   -1.43011    0.41557
H     -0.97971   -6.73943    3.06169
H     -4.81298   -4.13928   -4.01891
H     -3.22656   -3.39950   -4.23305
H     -1.76464   -3.37577   -1.66133
H     -2.54213   -5.23462   -2.85397
H     -5.80907    0.43108    0.90169
H     -4.12451    0.94053    0.76543
H     -5.35124    1.63739   -0.30405
H     -5.24719   -5.02961   -1.40701
H     -3.98817   -6.23037   -1.06740
H     -4.81417   -6.23246   -2.63048
H      0.18285   -6.09720   -2.89748
H      1.94560   -6.05621   -3.09836
H      1.09356   -4.69586   -2.34080
H      2.29345  -10.00001    2.91434
H      3.20554   -8.63345    3.54618
H      2.08404   -9.51005    4.60864
H      2.28496   -6.17276   -0.63324
H      1.40165   -7.54387   -1.18031
H      1.04487   -7.35742    3.89123
H      0.13775   -8.71503    3.26199
H     -3.46569   -4.07242    0.62525
