27   

C       -1.6576534351   -0.4137140105    1.7466668176
C       -0.5833474778   -0.6262267695    0.8636707818
C       -2.4618903400   -1.4908406038    2.1508132228
C       -0.3088280772   -1.9145831938    0.3814127057
C       -2.1776995041   -2.7715943079    1.6648846789
C       -1.1205300666   -2.9721397073    0.7966259352
C       -2.8831887220   -4.0203853933    1.9696616235
C       -2.2416826896   -7.1384680975    2.7179635747
C       -2.7253462448   -8.2178324353    3.4071552909
C       -2.8697131865   -6.4889223063    1.5006027502
C       -3.6649704999   -8.2393293566    4.5758054572
N       -2.3446957354   -5.1460518823    1.3852604749
O       -3.8728638242   -4.0694687224    2.6861218161
O       -1.3406446560   -4.9666649323   -1.0496701477
O        0.2271687437   -5.3428286908    0.8253380204
S       -1.0246682315   -4.7226489090    0.3654904351
Br      -2.7321305466   -8.8288186274    6.2229166940
H       -1.8654816790    0.5838584830    2.1181461181
H        0.0369445297    0.2074338308    0.5538653864
H       -3.2931725931   -1.3429424438    2.8335210568
H        0.5189757784   -2.0883076839   -0.3000971716
H       -1.1596096926   -7.0470368860    2.7153099751
H       -1.9822554241   -9.0028009715    3.5089365420
H       -2.6349365806   -7.0702354523    0.6015935246
H       -3.9605867013   -6.4672300736    1.6050971519
H       -4.5029198353   -8.9105006904    4.3654983163
H       -4.0686874385   -7.2343915255    4.7365210850
27   

C       -1.6968660991   -0.5310502726    1.9740186770
C       -0.6657469671   -0.6361243545    1.0227981803
C       -2.4510053662   -1.6619701626    2.3252131060
C       -0.3839901961   -1.8705656412    0.4196225262
C       -2.1611899659   -2.8884012139    1.7177501141
C       -1.1453481081   -2.9826929739    0.7839849723
C       -2.8208183803   -4.1789411627    1.9450301201
C       -2.0467048257   -7.2578584616    2.4638357716
C       -2.6513860754   -8.1200049121    3.3244266904
C       -2.7363604555   -6.6033213883    1.2859784176
C       -3.6231053601   -7.7431052720    4.4029102130
N       -2.3044894784   -5.2264073624    1.2144635595
O       -3.7592732510   -4.3259728239    2.7155717081
O       -1.3817836811   -4.8115448074   -1.2237015329
O        0.2515466063   -5.3150941741    0.5624117203
S       -1.0266050202   -4.6852980717    0.1976324464
Br      -2.9000342034   -8.2054334595    6.1894741014
H       -1.9103575763    0.4254058963    2.4386370369
H       -0.0846072349    0.2388116813    0.7534984609
H       -3.2490580299   -1.5963559469    3.0584553465
H        0.4103765544   -1.9618252407   -0.3156733241
H       -0.9907289843   -7.4363936351    2.2856944125
H       -2.0433269823   -8.9787084374    3.5915549213
H       -2.4665828950   -7.1264968132    0.3614197267
H       -3.8253418048   -6.6649890032    1.3943125418
H       -4.5727768367   -8.2623127839    4.2441935475
H       -3.8165905739   -6.6657395083    4.3632167607
27   

C       -1.7307459318   -0.5682860536    2.0077409622
C       -0.7072168197   -0.6645415974    1.0474536120
C       -2.4757202033   -1.7044588034    2.3611926253
C       -0.4239044805   -1.8954103761    0.4375508487
C       -2.1840479918   -2.9271975672    1.7471700278
C       -1.1759130797   -3.0130814330    0.8045275553
C       -2.8335064520   -4.2221033385    1.9771988791
C       -1.9698437133   -7.3268292010    2.4280738735
C       -2.5490292786   -8.0933561616    3.3796831040
C       -2.7368325766   -6.6469510953    1.3158672500
C       -3.5952139010   -7.6188412301    4.3421323613
N       -2.3076721506   -5.2683409854    1.2516341717
O       -3.7738451220   -4.3718449364    2.7446277734
O       -1.4352053050   -4.8396534614   -1.2019697585
O        0.2375522302   -5.3324462903    0.5500519642
S       -1.0534036025   -4.7136569798    0.2124897327
Br      -3.0249734286   -7.9561439164    6.2097084606
H       -1.9453097492    0.3852670878    2.4778270572
H       -0.1331026431    0.2144960213    0.7764679380
H       -3.2675679142   -1.6458283261    3.1017486706
H        0.3646995450   -1.9797354378   -0.3047138361
H       -0.9378485554   -7.5579406948    2.1828551961
H       -1.9354538489   -8.9078359439    3.7519028834
H       -2.5282809955   -7.1459956254    0.3625895874
H       -3.8166974370   -6.7127343982    1.4919294541
H       -4.5388814378   -8.1369039450    4.1480726481
H       -3.7655187022   -6.5456517041    4.2095697045
27   

C       -1.7177734715   -0.5735226397    2.0084681142
C       -0.6832702587   -0.6719769058    1.0602739663
C       -2.4715470207   -1.7073431959    2.3501006813
C       -0.3976778541   -1.9027669134    0.4509869353
C       -2.1770021916   -2.9299074181    1.7370423794
C       -1.1583436860   -3.0183720277    0.8064985187
C       -2.8330749934   -4.2225955624    1.9585055247
C       -1.9139682684   -7.3823695393    2.3238916754
C       -2.4306474994   -8.0452002873    3.3765805128
C       -2.7408742559   -6.6487247590    1.2927283878
C       -3.5128365205   -7.5291997523    4.2711740701
N       -2.2874079977   -5.2758408302    1.2576427897
O       -3.7974227451   -4.3610829754    2.6973256337
O       -1.4253721693   -4.8448699595   -1.1984197421
O        0.2569449948   -5.3360610254    0.5443418489
S       -1.0368454869   -4.7191522908    0.2142696779
Br      -2.9948170535   -7.7411412187    6.1716849513
H       -1.9338640899    0.3796768408    2.4786079945
H       -0.1023673591    0.2053393760    0.7983717988
H       -3.2715927057   -1.6473304842    3.0817207750
H        0.3994520264   -1.9886039475   -0.2818947699
H       -0.9176564596   -7.6707199233    2.0034374141
H       -1.7970719923   -8.8153701123    3.8052856492
H       -2.6038669995   -7.1111124713    0.3085052562
H       -3.8083871779   -6.7047184243    1.5347023182
H       -4.4409146988   -8.0766589210    4.0828232660
H       -3.6975480716   -6.4702376678    4.0701703046
27   

C       -1.9748873745   -0.7050759923    2.1279431061
C       -0.7383884768   -0.8434170776    1.4715613173
C       -2.8420795656   -1.8033744099    2.2365012145
C       -0.3635228711   -2.0790446668    0.9233734939
C       -2.4577856271   -3.0302130080    1.6852663211
C       -1.2404554996   -3.1585716348    1.0433991771
C       -3.2054140974   -4.2911458572    1.7032410105
C       -2.1571289470   -7.5717021588    2.0648653072
C       -2.3978157972   -7.7584959459    3.3742464612
C       -3.0106001597   -6.7364544473    1.1307532560
C       -3.0757600150   -6.7780394567    4.2713249015
N       -2.5450997605   -5.3655306622    1.1468916537
O       -4.3345730782   -4.3879643512    2.1645295066
O       -1.0818045674   -4.9398390938   -1.0059601047
O        0.1086763478   -5.5286843048    1.0748223700
S       -1.0478052393   -4.8569440075    0.4624030025
Br      -1.7880972687   -5.3828598116    4.8455917091
H       -2.2591135263    0.2507698502    2.5541962670
H       -0.0696263545    0.0060494799    1.3899858237
H       -3.7972326086   -1.7141261443    2.7447669349
H        0.5902346623   -2.1970394708    0.4173543742
H       -1.4545471281   -8.2492557913    1.5911740380
H       -1.9114612472   -8.5976684533    3.8602554060
H       -2.9490977657   -7.1352710917    0.1119937409
H       -4.0619153472   -6.7928522459    1.4349369811
H       -3.4541372558   -7.2966778484    5.1573353106
H       -3.9304851949   -6.3180683033    3.7676931807
27   

C       -1.9826344715   -0.6791348444    2.1361811829
C       -0.7312654656   -0.8399752830    1.5140292121
C       -2.8601861836   -1.7688903346    2.2460232757
C       -0.3522679419   -2.0894159522    1.0007831098
C       -2.4710042030   -3.0096913330    1.7306542670
C       -1.2399640822   -3.1601600944    1.1209566251
C       -3.2259360156   -4.2655750264    1.7606407420
C       -2.2348967566   -7.6262595508    2.0767802459
C       -2.3187894407   -7.6971203570    3.4142937828
C       -3.0630308951   -6.7144554534    1.1926525079
C       -2.9906768944   -6.6989378142    4.2918111794
N       -2.5513091723   -5.3612033327    1.2656640922
O       -4.3698755265   -4.3423158413    2.1880286708
O       -1.0730418861   -4.9893298924   -0.8851316595
O        0.1036238453   -5.5322965567    1.2161384599
S       -1.0474177494   -4.8725171466    0.5811840226
Br      -1.6900752280   -5.3143629053    4.8613941498
H       -2.2701769635    0.2872768729    2.5355784534
H       -0.0541874899    0.0028399506    1.4321587958
H       -3.8266093554   -1.6626164127    2.7291200972
H        0.6130353542   -2.2246491387    0.5217412162
H       -1.6173665332   -8.3638197138    1.5752658199
H       -1.7909390152   -8.5052925596    3.9094550031
H       -3.0241135153   -7.0672662243    0.1559183233
H       -4.1131354681   -6.7503948142    1.5039178467
H       -3.3789351909   -7.2040211228    5.1813529688
H       -3.8401445478   -6.2354763754    3.7835953319
27   

C       -2.0084188928   -0.7522378513    1.9731296356
C       -0.7347836427   -0.9230911089    1.4008361637
C       -2.8865036781   -1.8421428522    2.0758655787
C       -0.3341614733   -2.1826564077    0.9303266409
C       -2.4753495006   -3.0929774060    1.6037155010
C       -1.2229098331   -3.2534319459    1.0424641569
C       -3.2266415006   -4.3506080148    1.6371120537
C       -2.2692075878   -7.7437422477    1.9987581456
C       -2.2338723811   -7.6932647892    3.3386759876
C       -3.0522741555   -6.8047697322    1.1019614710
C       -2.9553844133   -6.7084033778    4.1876168472
N       -2.5283505258   -5.4574965029    1.2033244275
O       -4.3863610862   -4.4205621811    2.0209273583
O       -0.9916884054   -5.1302197430   -0.9126315711
O        0.1280290044   -5.6158678723    1.2334788971
S       -1.0075758877   -4.9776623453    0.5505813844
Br      -1.7076876811   -5.2869342598    4.7832541179
H       -2.3127859606    0.2219460829    2.3398546355
H       -0.0572525556   -0.0801106787    1.3247374097
H       -3.8700004520   -1.7283636206    2.5213629211
H        0.6484273155   -2.3255376070    0.4902703600
H       -1.6943117407   -8.5239411491    1.5113705885
H       -1.6531409232   -8.4513183905    3.8535476453
H       -2.9848140037   -7.1459386102    0.0627564635
H       -4.1124220880   -6.8316053406    1.3781235056
H       -3.3521195188   -7.2184142417    5.0705692680
H       -3.8051724147   -6.2717541185    3.6570026163
27   

C       -1.9601737635   -0.3548924699    1.7551846393
C       -0.6737825361   -0.5418217095    1.2174919507
C       -2.8396954598   -1.4421992407    1.8717980940
C       -0.2618494069   -1.8148889005    0.7955359137
C       -2.4171608532   -2.7064913450    1.4481040407
C       -1.1523220390   -2.8827943736    0.9206039924
C       -3.1680610659   -3.9634450453    1.5039210122
C       -2.2552179313   -7.3651411131    1.9663081283
C       -2.1016192111   -7.1818079637    3.2863494365
C       -2.9901478444   -6.4281046657    1.0259263298
C       -2.8697100749   -6.2190266955    4.1176706388
N       -2.4591709377   -5.0829512783    1.1227908754
O       -4.3359439095   -4.0233732735    1.8639362627
O       -0.8782957502   -4.8199973275   -0.9690218332
O        0.1958688004   -5.2363090520    1.2147276246
S       -0.9253013472   -4.6213765101    0.4880046874
Br      -1.6849754394   -4.7434848043    4.7096033624
H       -2.2733538606    0.6297754018    2.0845856184
H        0.0048260008    0.2992519555    1.1307181276
H       -3.8330435732   -1.3160198033    2.2913523302
H        0.7306157692   -1.9701279525    0.3826876058
H       -1.7162294942   -8.1891794221    1.5111509247
H       -1.4628089344   -7.8809025609    3.8157214713
H       -2.8857360561   -6.7864208386   -0.0044510222
H       -4.0606157112   -6.4411017531    1.2601230896
H       -3.2526782046   -6.7357983850    5.0027619021
H       -3.7317471609   -5.8221308318    3.5752528758
27   

C       -2.0007287375   -0.5284099960    1.8594184202
C       -0.7083619315   -0.7165000616    1.3366893997
C       -2.8864283720   -1.6126390040    1.9547009103
C       -0.2969340925   -1.9875212942    0.9078189945
C       -2.4639889319   -2.8748112713    1.5246965800
C       -1.1939079965   -3.0523601265    1.0109497105
C       -3.2207492378   -4.1286292706    1.5605537092
C       -2.4339083145   -7.5649492623    1.9927746249
C       -2.1354359815   -7.3151813326    3.2784786854
C       -3.0652661811   -6.5799642881    1.0241176187
C       -2.8704591038   -6.3674081115    4.1556929217
N       -2.5116279987   -5.2496634474    1.1836817652
O       -4.3935689010   -4.1849804358    1.9048202545
O       -0.9170567334   -4.9730822307   -0.8949889869
O        0.1417845551   -5.4155264536    1.2910389187
S       -0.9718418377   -4.7880307537    0.5635806350
Br      -1.6635342042   -4.9084926200    4.7436499049
H       -2.3137827745    0.4545862061    2.1939170152
H       -0.0248365070    0.1221459282    1.2668012551
H       -3.8844707404   -1.4858636896    2.3628228466
H        0.7000592167   -2.1435301750    0.5063879468
H       -1.9817962978   -8.4445847845    1.5473036098
H       -1.4736757007   -8.0149256013    3.7779841723
H       -2.8965726113   -6.9208187436   -0.0037372371
H       -4.1502210238   -6.5669387880    1.1778687887
H       -3.2268446440   -6.9023123925    5.0411104281
H       -3.7476747099   -5.9570848439    3.6480729002
27   

C       -2.0832744136   -0.4479320470    1.9526448105
C       -0.7873187592   -0.6397975067    1.4403031603
C       -2.9864559506   -1.5205836039    2.0025992416
C       -0.3899835814   -1.9028664596    0.9758613391
C       -2.5777569717   -2.7749088649    1.5378233779
C       -1.3044396025   -2.9562240636    1.0333552974
C       -3.3528612000   -4.0177291641    1.5284941439
C       -2.7331514256   -7.4575460379    1.9556633202
C       -2.2824635722   -7.1638540464    3.1889700416
C       -3.2287078952   -6.4540594694    0.9251220536
C       -2.9451420919   -6.2134980658    4.1228458576
N       -2.6555523791   -5.1378411852    1.1278652982
O       -4.5286300540   -4.0676347854    1.8636347207
O       -1.0413090189   -4.8214829619   -0.9291693038
O       -0.0061472171   -5.3483683143    1.2491791225
S       -1.1041941373   -4.6806724112    0.5339812576
Br      -1.6764633399   -4.7931798302    4.6729833442
H       -2.3854990190    0.5286925196    2.3146478018
H       -0.0900582696    0.1896924571    1.4062397541
H       -3.9873145035   -1.3913570248    2.4029989856
H        0.6097533716   -2.0617600017    0.5825426870
H       -2.3979900496   -8.4022716826    1.5413343910
H       -1.6176810215   -7.8849218570    3.6529164396
H       -2.9750188320   -6.8093451160   -0.0801775478
H       -4.3224097473   -6.4028842973    0.9715942940
H       -3.2673512783   -6.7563314450    5.0165069878
H       -3.8373663418   -5.7746361637    3.6673503392
27   

C       -2.2740577493   -0.6512273474    1.8375079428
C       -0.9918461738   -0.8233020264    1.2851391768
C       -3.1775313138   -1.7242398310    1.8667916845
C       -0.6088943318   -2.0665818137    0.7589867914
C       -2.7827871202   -2.9588877966    1.3413112121
C       -1.5235274370   -3.1207115489    0.7961919796
C       -3.5580808700   -4.2008704334    1.3070195790
C       -3.1309207005   -7.5813606233    1.7597626086
C       -2.5016044253   -7.2935892970    2.9190447598
C       -3.4490403754   -6.6155622683    0.6299927328
C       -2.9889088981   -6.3056740845    3.9238525774
N       -2.8700373707   -5.3057438638    0.8526380694
O       -4.7237763526   -4.2645319751    1.6736774197
O       -1.3312970671   -4.9078540686   -1.2462625004
O       -0.2192641247   -5.5210749486    0.8702712511
S       -1.3407611751   -4.8243999759    0.2225511932
Br      -1.5832953726   -4.9676468122    4.3251970638
H       -2.5650705186    0.3099242601    2.2470123459
H       -0.2938942973    0.0061077329    1.2680820802
H       -4.1673237823   -1.6108992127    2.2983152804
H        0.3804228431   -2.2101260249    0.3347333087
H       -2.9936412147   -8.5999218533    1.4132740575
H       -1.8868700486   -8.0831347756    3.3383667681
H       -3.0832719899   -7.0264381851   -0.3180018446
H       -4.5369620323   -6.5264736729    0.5320413009
H       -3.2407057457   -6.8316416216    4.8496609177
H       -3.8981290135   -5.8108958360    3.5703407717
27   

C       -2.3240363369   -0.7263011408    1.8627515198
C       -1.0399402396   -0.8696623643    1.3065675662
C       -3.2217838530   -1.8043843925    1.8482257514
C       -0.6492008882   -2.0891067441    0.7325684693
C       -2.8195488412   -3.0153049737    1.2754827410
C       -1.5579236839   -3.1489058538    0.7265004810
C       -3.5872605192   -4.2599804712    1.1949485074
C       -3.2988511479   -7.4975833474    1.7644863918
C       -2.5669806135   -7.2211404201    2.8736703033
C       -3.4332301542   -6.6682588729    0.5019962997
C       -2.9247399161   -6.2130769203    3.9160057398
N       -2.8944685731   -5.3370164115    0.6867055790
O       -4.7476803589   -4.3511240638    1.5724303193
O       -1.3391608747   -4.8558634364   -1.3819912633
O       -0.2460118952   -5.5492101661    0.7193908689
S       -1.3620385709   -4.8286304457    0.0887181349
Br      -1.4408660981   -4.9289775816    4.1850591586
H       -2.6207529521    0.2163429654    2.3094513777
H       -0.3463111191   -0.0366604125    1.3239759825
H       -4.2126836899   -1.7134884117    2.2824423660
H        0.3418370452   -2.2105689630    0.3054870117
H       -3.3619428448   -8.5566027763    1.5392751239
H       -2.0195400344   -8.0624435635    3.2855449673
H       -2.9251658841   -7.1713514362   -0.3286660098
H       -4.4923656196   -6.5950089620    0.2299668317
H       -3.1161792011   -6.7265200783    4.8631011283
H       -3.8399434531   -5.6826060761    3.6362168626
27   

C       -2.1662221578   -0.5935733592    2.1258472567
C       -0.8612203036   -0.7049816869    1.6127076230
C       -3.0434165930   -1.6869554726    2.0631474948
C       -0.4281976136   -1.9083249501    1.0357134982
C       -2.6003016862   -2.8811923561    1.4854907698
C       -1.3165444163   -2.9837784683    0.9826647140
C       -3.3457287804   -4.1354190670    1.3504583877
C       -3.1001779352   -7.1964923238    2.0838930992
C       -2.3578907102   -6.8922710436    3.1893321627
C       -3.0793036541   -6.5504790748    0.7129626751
C       -2.7244262811   -5.9153196324    4.2602966305
N       -2.6361411322   -5.1748568349    0.7894913570
O       -4.5066304753   -4.2610407284    1.7166668324
O       -0.9159655854   -4.6448108819   -1.1350643120
O       -0.0021375415   -5.3813937063    1.0358054060
S       -1.0630784615   -4.6484942121    0.3286515036
Br      -1.2834766639   -4.5777991717    4.4944086629
H       -2.4954747926    0.3367038587    2.5755363058
H       -0.1841884332    0.1400675037    1.6657677268
H       -4.0508152642   -1.6199177440    2.4621359874
H        0.5790218165   -2.0055627331    0.6414944935
H       -3.3117085548   -8.2557668979    1.9877298023
H       -1.8199011537   -7.7367467637    3.6071686181
H       -2.4228220191   -7.1228071490    0.0476408435
H       -4.0853123752   -6.5807419173    0.2795682581
H       -2.8674270242   -6.4468259311    5.2060400662
H       -3.6652994753   -5.4151606869    4.0091182272
