25   

C        0.0068803465   -0.0810820010    1.3459008377
C        1.6315915788   -0.6648274863    2.9781618795
C       -0.8535718826   -1.0031497278    1.9414223284
C        1.2903646388    0.0991544980    1.8649608425
C        0.7114608998   -1.5718246613    3.5098646340
C        2.3068155728    1.0640187604    1.3402247223
C        2.8336459382    4.1089757405    0.8928315401
C        2.3050044724   -2.4958919289    5.2195318035
C        2.6594766789    2.9351757287   -0.0658273562
N       -0.5059795702   -1.7384553998    3.0068044009
N        0.9822360362   -2.3719279926    4.5945044197
O        3.4815459040    1.0179538901    1.6971550786
O        1.7633965729    1.9602501259    0.4871598488
H       -0.3312173876    0.4860000587    0.4874228466
H        2.6076863974   -0.5615602125    3.4313667646
H       -1.8459644484   -1.1317050595    1.5250634934
H        1.8632492059    4.5666934967    1.1069457276
H        3.2856277738    3.7729916144    1.8309996391
H        3.4869403377    4.8621234060    0.4427674993
H        3.0576325299   -2.7700251677    4.4726688190
H        2.2829548317   -3.2792424387    5.9837903501
H        2.5914539028   -1.5549728578    5.7006517443
H        3.6356504886    2.4913430534   -0.2915583107
H        2.2423413201    3.3015892827   -1.0090685247
H        0.2079576036   -2.9812744703    4.8332252742
25   

C       -0.0024658548   -0.1855623555    1.2506520965
C        1.6132868913   -0.6612449422    2.9260970329
C       -0.8582975455   -1.0839516783    1.8878659190
C        1.2749854004    0.0322566773    1.7672048216
C        0.6986059742   -1.5484911824    3.4987577673
C        2.2751099011    0.9929847864    1.2060392413
C        2.9399154095    4.0421274059    1.0446186282
C        2.2868280878   -2.3591707332    5.2692587567
C        2.5523383646    3.0061494087   -0.0058420813
N       -0.5119845452   -1.7569807768    2.9943523110
N        0.9676015012   -2.2826220864    4.6294309272
O        3.4802312024    0.8495040503    1.3947143994
O        1.6782889778    2.0174135929    0.5575825281
H       -0.3372310536    0.3365516580    0.3628707849
H        2.5846057170   -0.5170504362    3.3784085571
H       -1.8460849594   -1.2447337317    1.4717608358
H        2.0430505089    4.5190938505    1.4509954108
H        3.4953668256    3.5702025858    1.8607343420
H        3.5734863076    4.8104844354    0.5920577304
H        3.0481918751   -2.6626605022    4.5428808106
H        2.2675928191   -3.1024398282    6.0726289298
H        2.5590272640   -1.3915320673    5.7033338692
H        3.4543457308    2.5440475976   -0.4226655973
H        2.0328630978    3.5071431855   -0.8287204606
H        0.1986078689   -2.8882615719    4.8934232537
25   

C       -0.0021574796   -0.2886242891    1.1555713930
C        1.6014939278   -0.6426243889    2.8713682775
C       -0.8464502236   -1.1728791496    1.8272962348
C        1.2641710229   -0.0203196030    1.6729261234
C        0.6994937903   -1.5202530142    3.4779181977
C        2.2388730825    0.9462395074    1.0763455470
C        3.0669147885    3.9589601443    1.1817644828
C        2.2831567368   -2.2060961781    5.3040831292
C        2.4691806186    3.0817327157    0.0863135665
N       -0.4994291523   -1.7818364607    2.9702526730
N        0.9696524431   -2.1883037743    4.6485063701
O        3.4468735937    0.7278404367    1.0820503768
O        1.6224066748    2.0714178149    0.6528364361
H       -0.3360477044    0.1858791021    0.2412527431
H        2.5641439106   -0.4500675584    3.3239280411
H       -1.8257677840   -1.3751239950    1.4092657041
H        2.2688945408    4.4218880244    1.7698589416
H        3.7012958257    3.3634981891    1.8452632581
H        3.6775528818    4.7480523973    0.7333696100
H        3.0586913046   -2.5265617942    4.6003433012
H        2.2710103689   -2.9113184643    6.1411923450
H        2.5298113608   -1.2135217431    5.6949405112
H        3.2718565837    2.6343153727   -0.5107223304
H        1.8715170338    3.7052997001   -0.5859654887
H        0.2112009974   -2.7980133773    4.9329656849
25   

C       -0.0108766562   -0.4012209744    1.0665663677
C        1.5751150576   -0.6201675352    2.8195098734
C       -0.8342053264   -1.2852231358    1.7643780660
C        1.2360438471   -0.0650175702    1.5894988981
C        0.6954026826   -1.5024029936    3.4516322111
C        2.1794534535    0.9113924770    0.9554244961
C        3.2269090302    3.8390058054    1.2785003734
C        2.2733127835   -2.0506828008    5.3287292318
C        2.4096026181    3.1389521631    0.1974171807
N       -0.4847647869   -1.8299563447    2.9385773099
N        0.9702888444   -2.1075720990    4.6548508779
O        3.3555588552    0.6294489070    0.7488128175
O        1.5883533516    2.1112718599    0.7700226404
H       -0.3455952870    0.0202955195    0.1270937729
H        2.5231796871   -0.3721135958    3.2752119340
H       -1.7984979008   -1.5414216146    1.3410378855
H        2.5618646047    4.2652766765    2.0354720540
H        3.9103512907    3.1325185203    1.7591346081
H        3.8172715834    4.6453121370    0.8335868271
H        3.0707692700   -2.3701773355    4.6494772058
H        2.2739133365   -2.7219658254    6.1933860083
H        2.4775440597   -1.0348583035    5.6825473996
H        3.0789784200    2.7286254277   -0.5671039663
H        1.7631467410    3.8724661080   -0.2945861727
H        0.2299922625   -2.7324865039    4.9539139176
25   

C       -0.0356938713   -0.5032009769    0.9955174623
C        1.5073228748   -0.5633423129    2.7973350023
C       -0.8241107013   -1.4123553949    1.7013169218
C        1.1693194218   -0.0679607045    1.5422480382
C        0.6649951463   -1.4768931245    3.4361058476
C        2.0741851249    0.9292091628    0.8797495816
C        3.3788901635    3.7274221695    1.3408464790
C        2.2236983626   -1.8757482849    5.3663334626
C        2.3405057060    3.2165352897    0.3469476688
N       -0.4778139811   -1.8933544428    2.9038162857
N        0.9426223512   -2.0258332668    4.6653641198
O        3.1685431297    0.6076392874    0.4290688608
O        1.5506166020    2.1719013569    0.9327287296
H       -0.3643227496   -0.1413054061    0.0295008640
H        2.4256171324   -0.2441969637    3.2687631442
H       -1.7565208903   -1.7442418528    1.2595222847
H        2.8849388533    4.0903913921    2.2470822323
H        4.0774147228    2.9289803280    1.6087995641
H        3.9460455374    4.5497560360    0.8950809132
H        3.0545072301   -2.1631921544    4.7132375966
H        2.2434429838   -2.5255032945    6.2470687665
H        2.3591464291   -0.8415429716    5.6992605007
H        2.8385916231    2.8697690824   -0.5655015856
H        1.6787585387    4.0412736469    0.0642387175
H        0.2336720523   -2.6863596233    4.9640317605
25   

C       -0.0350450204   -0.6214214119    0.9241987324
C        1.4465039748   -0.5115178132    2.7729245118
C       -0.7698953240   -1.5754853891    1.6283452729
C        1.1049630317   -0.0657313930    1.5003941698
C        0.6611542716   -1.4765358437    3.4088659081
C        1.9627876354    0.9576757738    0.8134414703
C        3.5371200248    3.5983220622    1.3240245102
C        2.1919555521   -1.7150845972    5.3875784306
C        2.2984089380    3.2756364363    0.4941289925
N       -0.4269578261   -1.9963439370    2.8539831591
N        0.9459304362   -1.9770111744    4.6570298198
O        2.9035927712    0.6344003549    0.0965405454
O        1.5505995361    2.2105863176    1.0979212205
H       -0.3526544910   -0.3205580201   -0.0661849994
H        2.3223346064   -0.1116955223    3.2627780702
H       -1.6539526829   -1.9970875263    1.1642113857
H        3.2462137403    3.8705998300    2.3429880406
H        4.2081022001    2.7347833270    1.3614496536
H        4.0761957077    4.4377804236    0.8753576680
H        3.0600258479   -1.9451461364    4.7607416884
H        2.2397520393   -2.3483472863    6.2791914597
H        2.2360797728   -0.6685985251    5.7064261857
H        2.5930454876    3.0201969370   -0.5299692620
H        1.6622881018    4.1646209556    0.4385937123
H        0.2837518745   -2.6871741583    4.9492755482
25   

C       -0.0277069634   -0.7187294656    0.8644961506
C        1.3754249784   -0.4491834931    2.7559473177
C       -0.6980839966   -1.7240515504    1.5612431412
C        1.0313365455   -0.0455824336    1.4697048514
C        0.6585231453   -1.4712848798    3.3836937477
C        1.8358574251    1.0114430516    0.7719612644
C        3.6636304799    3.4768746656    1.2804859009
C        2.1440298776   -1.5498629192    5.4095517903
C        2.2765734811    3.3321219141    0.6618514434
N       -0.3613863400   -2.0930081662    2.8050980077
N        0.9493016615   -1.9303832006    4.6462900072
O        2.5741001315    0.7392423855   -0.1686604477
O        1.5694971188    2.2396673084    1.2656115009
H       -0.3291969641   -0.4701629450   -0.1454339915
H        2.1987158721    0.0306110815    3.2646742309
H       -1.5219943304   -2.2331020590    1.0746530097
H        3.5791403562    3.6306266369    2.3604482374
H        4.2619959620    2.5803347409    1.0918411557
H        4.1782497960    4.3366102569    0.8416338184
H        3.0479777319   -1.7095386380    4.8122550085
H        2.2201209758   -2.1656041386    6.3114182917
H        2.0855133076   -0.4998107901    5.7140202135
H        2.3646623997    3.1958454364   -0.4218608221
H        1.7105531270    4.2537309414    0.8299848505
H        0.3430649495   -2.6922424915    4.9297278095
25   

C       -0.0086039029   -0.7793792121    0.8176301155
C        1.3109634356   -0.3814774233    2.7450938763
C       -0.6141700612   -1.8317469076    1.5037180319
C        0.9698053838   -0.0121552857    1.4471367435
C        0.6627042219   -1.4550453651    3.3615680938
C        1.7132082991    1.0875839118    0.7530705716
C        3.7586082274    3.3800028070    1.2212347543
C        2.0880058823   -1.3943869462    5.4311553897
C        2.2811258275    3.3824325520    0.8405215917
N       -0.2854764265   -2.1625301070    2.7602713583
N        0.9554113102   -1.8820968006    4.6349146751
O        2.2447580708    0.9101320670   -0.3381048579
O        1.6120859241    2.2560960688    1.4249874581
H       -0.2952027092   -0.5667087282   -0.2050205427
H        2.0782801212    0.1663194328    3.2725205534
H       -1.3769188087   -2.4118759149    0.9973584295
H        3.8661703694    3.3978176279    2.3099135828
H        4.2537047861    2.4873173343    0.8269288784
H        4.2513314272    4.2631544248    0.8043231308
H        3.0214125528   -1.4837632995    4.8653605273
H        2.1853585701   -1.9920330310    6.3430942550
H        1.9317158979   -0.3498360658    5.7196445170
H        2.1775474221    3.3824146566   -0.2503457603
H        1.8158672095    4.3006294654    1.2125993704
H        0.4052320105   -2.6887371853    4.9086561951
25   

C        0.0460176680   -0.8233057378    0.7748349982
C        1.2668838117   -0.3354897300    2.7450069431
C       -0.5027222435   -1.9199051604    1.4385713420
C        0.9446829862    0.0132579000    1.4358329513
C        0.6795991503   -1.4563598949    3.3381340841
C        1.6187093045    1.1674762983    0.7636076975
C        3.8305561464    3.3160054229    1.1465348016
C        2.0219017280   -1.2943025086    5.4574008756
C        2.3131556847    3.4149347812    1.0209281662
N       -0.1925136869   -2.2301989298    2.7047363866
N        0.9601848971   -1.8654841103    4.6200812431
O        1.9595848126    1.1094873013   -0.4137392926
O        1.6882116498    2.2482142631    1.5742785240
H       -0.2229520727   -0.6282784810   -0.2563446123
H        1.9732484203    0.2634641409    3.3013938298
H       -1.2035794051   -2.5524610159    0.9062040506
H        4.1138352212    3.1958796713    2.1964898086
H        4.2069320571    2.4625369002    0.5743027732
H        4.2958792852    4.2266571446    0.7582976926
H        2.9803655728   -1.3145166990    4.9279838120
H        2.1281384770   -1.8823300701    6.3745803111
H        1.7775766694   -0.2640163142    5.7359033041
H        2.0345520162    3.5527574685   -0.0298391867
H        1.9639906537    4.2954427018    1.5693465833
H        0.4610905843   -2.7105694305    4.8750640343
25   

C        0.0996739525   -0.8761712911    0.7511833656
C        1.2213561849   -0.3218557174    2.7609736049
C       -0.3999545109   -2.0086551392    1.3924179001
C        0.9256943321    0.0121473110    1.4410200236
C        0.6867554346   -1.4808247516    3.3307469330
C        1.5266111330    1.2178166999    0.7911165458
C        3.8713518922    3.2486366360    1.0126190582
C        1.9345341015   -1.2390342177    5.5002677261
C        2.3601009550    3.4029720769    1.1550618137
N       -0.1120563676   -2.3057487976    2.6665214199
N        0.9475298003   -1.8771954783    4.6209403057
O        1.6811401095    1.2744422948   -0.4252513058
O        1.7815435498    2.2016743472    1.6846133256
H       -0.1533628629   -0.6918551122   -0.2861736439
H        1.8679911066    0.3132864569    3.3488677943
H       -1.0432731526   -2.6801134477    0.8356106221
H        4.3178616930    3.0083533804    1.9821305349
H        4.1091619010    2.4514066264    0.3017190879
H        4.3074238269    4.1823344875    0.6457509911
H        2.9134569718   -1.1974598517    5.0110838879
H        2.0399620729   -1.8191550952    6.4225588943
H        1.6131623525   -0.2266543985    5.7659260454
H        1.9190575948    3.6608068112    0.1856508157
H        2.1465159079    4.2289923739    1.8406471894
H        0.4929402482   -2.7523124156    4.8571036414
25   

C        0.1840438481   -0.9004589623    0.7300060740
C        1.1930840094   -0.3049847980    2.7862085373
C       -0.2740475917   -2.0666858248    1.3404058614
C        0.9360440605    0.0249057155    1.4567222080
C        0.7042530184   -1.4993528967    3.3237161997
C        1.4674248711    1.2804174288    0.8405157902
C        3.9019915899    3.2224377458    0.8634507649
C        1.8449794945   -1.2102396081    5.5461852811
C        2.4412601006    3.3950783244    1.2686289596
N       -0.0180672197   -2.3618532477    2.6212918461
N        0.9331523936   -1.8934628623    4.6207090213
O        1.4447072372    1.4499732614   -0.3752262011
O        1.9096351660    2.1599118889    1.7689637425
H       -0.0468802581   -0.7177244830   -0.3128778721
H        1.7742425788    0.3554337850    3.4130211708
H       -0.8584302709   -2.7657726051    0.7534384225
H        4.4907570489    2.8753021519    1.7177877401
H        3.9899736584    2.4962297561    0.0496029794
H        4.3081206152    4.1786191146    0.5209139137
H        2.8398598317   -1.1098112251    5.0995992831
H        1.9433490827   -1.7925687976    6.4678598351
H        1.4568189714   -0.2198233435    5.8053718895
H        1.8587476269    3.7596021111    0.4150485345
H        2.3742815473    4.1522213315    2.0561508969
H        0.5191828602   -2.7950500416    4.8305062174
25   

C       -0.2165355194   -0.1450523749    1.1671078420
C        1.6037171909   -0.9779460576    2.4288019946
C       -1.0725457359   -0.6644295055    2.1364777773
C        1.1663382290   -0.2939569980    1.2958189243
C        0.6809504582   -1.4630802655    3.3603947418
C        2.1228154593    0.2448069853    0.2788622929
C        4.7248570579    1.9348507494   -0.0428114331
C        2.4251310131   -2.2690244050    4.9830512995
C        4.4007574982    0.4708909233   -0.3241103654
N       -0.6293717567   -1.3147499394    3.2197488300
N        1.0438404584   -2.1312369706    4.5057535805
O        1.7210500486    0.8448500467   -0.7141556860
O        3.4125524201   -0.0123886527    0.5971802610
H       -0.6329992923    0.3739709545    0.3117973024
H        2.6571957799   -1.1409015117    2.6026438664
H       -2.1411791170   -0.5352736606    2.0095908910
H        3.8371901368    2.5579823969   -0.1882735320
H        5.0786443442    2.0507689895    0.9859766572
H        5.5068884815    2.2799065655   -0.7254104607
H        2.9026953844   -1.2867450681    5.0628277125
H        3.0034616181   -2.9048175153    4.3047653563
H        2.4305744895   -2.7313498816    5.9752652110
H        5.3107931153   -0.1263544225   -0.2097903676
H        4.0639253298    0.3569647199   -1.3606515948
H        0.2438689244   -2.3944706288    5.0705496930
25   

C       -0.2422358609   -0.2203955859    1.1243832847
C        1.6037034535   -0.9329982818    2.4227966294
C       -1.0812660408   -0.7914959719    2.0795589998
C        1.1442244831   -0.2867055744    1.2766654845
C        0.6966879045   -1.4741058020    3.3387403846
C        2.0854181185    0.3288016418    0.2899209015
C        4.8122249631    1.8146569930    0.0504838919
C        2.4582190865   -2.1555860780    4.9990818392
C        4.3351832138    0.4497363888   -0.4364518540
N       -0.6176372834   -1.4113990652    3.1723054857
N        1.0801138936   -2.1100897094    4.4956310898
O        1.6814431367    1.0949063921   -0.5802370510
O        3.3595006478   -0.0920785284    0.4652459360
H       -0.6738258715    0.2762343629    0.2633294564
H        2.6627656177   -1.0195227593    2.6169428357
H       -2.1534812314   -0.7281617576    1.9342992424
H        3.9808821876    2.5259728635    0.0696007304
H        5.2328936793    1.7289978727    1.0568350365
H        5.5837591252    2.2003695118   -0.6222093248
H        2.8697057075   -1.1440359361    5.0812746208
H        3.0890242219   -2.7561539806    4.3356283133
H        2.4749519142   -2.6112590005    5.9942449931
H        5.1891853846   -0.2332112092   -0.4834228163
H        3.9308300831    0.5369320999   -1.4511891518
H        0.2883032496   -2.4214247704    5.0473124883
25   

C       -0.2565974474   -0.2887256655    1.0772263985
C        1.5968584167   -0.8835585500    2.4247445353
C       -1.0818249656   -0.9130459899    2.0113279245
C        1.1261735148   -0.2730978143    1.2641520783
C        0.7033468745   -1.4821346267    3.3174986160
C        2.0555403988    0.4204452873    0.3194364472
C        4.8863823168    1.6903011217    0.1066711283
C        2.4622123229   -2.0450777660    5.0239057342
C        4.2563362341    0.4658154167   -0.5503335254
N       -0.6076450037   -1.5042467787    3.1159271350
N        1.0970248002   -2.0891723305    4.4863601161
O        1.6649786774    1.3332109503   -0.4023310967
O        3.2908826578   -0.1320214487    0.3264492013
H       -0.6947608066    0.1875266130    0.2081435561
H        2.6553794728   -0.8941106015    2.6405726688
H       -2.1520945564   -0.9152591208    1.8402499707
H        4.1272450319    2.4548822830    0.2980735315
H        5.3571510236    1.4087179316    1.0533224502
H        5.6485012020    2.1152827643   -0.5529556932
H        2.8061597411   -1.0090880774    5.1119047904
H        3.1463651853   -2.6059082856    4.3787927129
H        2.4831980851   -2.4959610890    6.0211718318
H        5.0387785089   -0.2684562706   -0.7661674799
H        3.8013406048    0.7487405746   -1.5062037943
H        0.3132094611   -2.4496939471    5.0191930958
25   

C       -0.2467571416   -0.3616858542    1.0403241226
C        1.5955274571   -0.8465957482    2.4477772817
C       -1.0606360445   -1.0444662600    1.9434214550
C        1.1245164764   -0.2642390156    1.2737204557
C        0.7133950211   -1.5072009164    3.3071559684
C        2.0434978861    0.5074387316    0.3801788917
C        4.9563319586    1.5598118105    0.1289551661
C        2.4444127765   -1.9547947845    5.0742918733
C        4.1695987506    0.5163247386   -0.6586041100
N       -0.5860544851   -1.6126765659    3.0603713255
N        1.1063902901   -2.0932365125    4.4868251865
O        1.6822487576    1.5477842842   -0.1610091336
O        3.2170185075   -0.1383438967    0.1910952182
H       -0.6842384427    0.0974887636    0.1619842350
H        2.6460244372   -0.7859349507    2.6928081902
H       -2.1226519555   -1.1121869527    1.7378030060
H        4.2875067535    2.3408571897    0.5033311418
H        5.4643966896    1.0877718577    0.9752004822
H        5.7064488306    2.0253217362   -0.5169285563
H        2.7137687338   -0.8975846985    5.1696586579
H        3.1885819183   -2.4694713786    4.4577969204
H        2.4587711840   -2.4003735870    6.0740615187
H        4.8625964797   -0.2329173749   -1.0540329756
H        3.6766499009    0.9897386176   -1.5151133725
H        0.3297830576   -2.5049485622    4.9924488605
25   

C       -0.2263035051   -0.4371275536    1.0142892962
C        1.5843951871   -0.8080383827    2.4970110842
C       -1.0283564772   -1.1828073428    1.8777597586
C        1.1230993140   -0.2501357501    1.3081342066
C        0.7145782214   -1.5356804956    3.3135766210
C        2.0296696126    0.5950169907    0.4669097161
C        4.9956226421    1.4483948767    0.1025639664
C        2.3944689584   -1.8741780552    5.1525318478
C        4.0514176507    0.6176702246   -0.7613103308
N       -0.5629860533   -1.7279779256    3.0102806054
N        1.0973776313   -2.1042947646    4.5050493425
O        1.7184716255    1.7353830120    0.1391610400
O        3.1182500865   -0.0962882479    0.0616781194
H       -0.6566535480    0.0008430402    0.1220099398
H        2.6174548924   -0.6759086889    2.7840028158
H       -2.0737623904   -1.3208389059    1.6271424584
H        4.4363289681    2.2038115524    0.6629401233
H        5.5279614608    0.8016010969    0.8063975880
H        5.7279564806    1.9573680042   -0.5308250516
H        2.5843335796   -0.8010174787    5.2604112914
H        3.1999980958   -2.3331752624    4.5701369881
H        2.3950305880   -2.3210776324    6.1518172248
H        4.6358283843   -0.1048362835   -1.3396194402
H        3.5333146445    1.2662360836   -1.4766085938
H        0.3298981025   -2.5714484894    4.9752011527
25   

C       -0.1719767462   -0.4912873480    0.9950890742
C        1.5738987443   -0.7582040912    2.5761807842
C       -0.9692343455   -1.2985990398    1.8063566796
C        1.1409319227   -0.2152010615    1.3706004875
C        0.7103087251   -1.5513323030    3.3363600322
C        2.0469643606    0.6835808577    0.5815031330
C        5.0414054076    1.3253279091    0.0344901445
C        2.3014366069   -1.7958944129    5.2665003341
C        3.9361578500    0.7405536032   -0.8396120029
N       -0.5328162719   -1.8239379370    2.9597134463
N        1.0641608145   -2.1095884152    4.5416003221
O        1.8398860723    1.8893530200    0.4972628026
O        3.0159077256   -0.0191290977   -0.0433951811
H       -0.5786393438   -0.0778848582    0.0805594176
H        2.5788849069   -0.5626089804    2.9205069367
H       -1.9866044992   -1.5050756192    1.4948184764
H        4.6214961704    2.0203539915    0.7679933534
H        5.5678296089    0.5235720019    0.5609520268
H        5.7588223086    1.8684079117   -0.5875601341
H        2.4103961873   -0.7130772975    5.3890425107
H        3.1698910903   -2.1944400193    4.7320084136
H        2.2731440914   -2.2489360410    6.2626144250
H        4.3829140013    0.0791963845   -1.5886291125
H        3.4228684890    1.5448832132   -1.3784544729
H        0.3039304912   -2.6309113182    4.9641666885
25   

C       -0.0790564686   -0.5503168920    0.9641136455
C        1.5730880981   -0.7082871741    2.6583183946
C       -0.8699695866   -1.4172286065    1.7184250705
C        1.1784032318   -0.1785902047    1.4342456214
C        0.7183616074   -1.5652969218    3.3564815619
C        2.0927780181    0.7569022311    0.6967483108
C        5.0819673887    1.1859798198   -0.0732449629
C        2.1960782140   -1.7222174429    5.3831109800
C        3.8352676516    0.8762054583   -0.8960675932
N       -0.4761771602   -1.9183923010    2.8976958131
N        1.0324324965   -2.1123873633    4.5777654991
O        2.0508303870    1.9700487256    0.8701981171
O        2.9135645128    0.0826175792   -0.1352794962
H       -0.4475238861   -0.1692969771    0.0200214510
H        2.5393153135   -0.4500843459    3.0665223268
H       -1.8456146755   -1.6953705650    1.3370069046
H        4.8208155739    1.7792807506    0.8082937097
H        5.5598821642    0.2561256905    0.2492714026
H        5.7932757614    1.7564799763   -0.6775337289
H        2.2219183479   -0.6358256951    5.5190688357
H        3.1224719186   -2.0545459159    4.9034281783
H        2.1355167952   -2.1867474431    6.3724663231
H        4.1259012619    0.3167759469   -1.7908290931
H        3.3695012493    1.8097440405   -1.2313357129
H        0.2840804005   -2.6880682971    4.9476036651
25   

C       -0.1916876066    0.4776497245    1.9952031550
C        1.5950536691   -0.5203387440    3.1958135702
C       -0.9808968092   -0.6161658406    2.3511025876
C        1.1296548116    0.5444761474    2.4313202580
C        0.7421270506   -1.5840784155    3.5020307072
C        2.0642035502    1.6652146493    2.0816458433
C        2.5879707088    3.8704187477   -0.0467225538
C        2.5119692907   -2.9334695552    4.6712721045
C        3.3551895610    2.6098430316    0.3406599000
N       -0.5205165215   -1.6322346495    3.0943512733
N        1.1324114267   -2.6751360413    4.2414882380
O        2.4469762731    2.4727181753    2.9214852530
O        2.4514899346    1.5905213845    0.7904744583
H       -0.6101068867    1.2678446892    1.3847808947
H        2.6149117965   -0.5169050272    3.5525549922
H       -2.0089544071   -0.6484487411    2.0093743447
H        1.8570323457    3.6403733183   -0.8277008511
H        2.0660320679    4.2827885305    0.8221667490
H        3.2820795444    4.6261384233   -0.4257487005
H        3.1864684964   -2.9405899223    3.8085523536
H        2.5720122003   -3.9120115309    5.1582279337
H        2.8395581459   -2.1730329110    5.3876754869
H        4.0978492138    2.8479460586    1.1104036077
H        3.8987438902    2.2377221960   -0.5334525397
H        0.3886908460   -3.3544844168    4.3572791270
25   

C       -0.1111930402    0.4083997472    1.8778433447
C        1.6169818908   -0.5496494558    3.1933458803
C       -0.9240173973   -0.6627585916    2.2492681298
C        1.1903809309    0.4867981722    2.3689902084
C        0.7426907980   -1.5923740942    3.5105850001
C        2.1632637171    1.5647232543    1.9994691637
C        2.5815914322    3.9770380932    0.0847446346
C        2.4550554719   -2.9060301111    4.7990634586
C        3.2614318515    2.6150107786    0.1870972210
N       -0.5035434607   -1.6478842927    3.0554508813
N        1.0943893101   -2.6548389078    4.3087342569
O        2.7714243566    2.2049229403    2.8511756405
O        2.3353237666    1.6271883076    0.6609239646
H       -0.4944283234    1.1703747812    1.2109106655
H        2.6231140458   -0.5394606353    3.5878620945
H       -1.9368438629   -0.7040794604    1.8656113861
H        1.7171521654    3.9163647394   -0.5832358496
H        2.2488459177    4.3135682640    1.0714091422
H        3.2841737073    4.7140633170   -0.3149111343
H        3.1607948533   -2.9516202819    3.9628949648
H        2.4889539923   -3.8651972642    5.3254730994
H        2.7626640391   -2.1203969450    5.4969058809
H        4.1366834305    2.6840690859    0.8427444940
H        3.6184709589    2.3166162719   -0.8035976987
H        0.3413652987   -3.3241020505    4.4226875776
25   

C       -0.0554134238    0.3215691586    1.7613408581
C        1.6311893514   -0.5846201496    3.1663688020
C       -0.8890188700   -0.7197593777    2.1693979895
C        1.2362900203    0.4113282767    2.2778993148
C        0.7371650484   -1.5994207332    3.5170908948
C        2.2366573867    1.4520709803    1.8829800443
C        2.5848940918    4.0588588763    0.2269725853
C        2.4034682936   -2.8610468831    4.9131234923
C        3.1463935676    2.6503706350    0.0571416486
N       -0.4988869543   -1.6652716885    3.0360519996
N        1.0574941719   -2.6221774473    4.3778978098
O        3.0168976399    1.9369439797    2.6971431668
O        2.2153311514    1.6766181279    0.5502564483
H       -0.4149826371    1.0511111396    1.0464535898
H        2.6280926886   -0.5665122577    3.5840413905
H       -1.8931972533   -0.7705755139    1.7647243607
H        1.6291454684    4.1484061425   -0.2980375751
H        2.4336634228    4.2852346429    1.2868674401
H        3.2843497868    4.7903985570   -0.1879443912
H        3.1279686759   -2.9580098888    4.0976233628
H        2.4141316174   -3.7912677400    5.4900290578
H        2.7038214281   -2.0427179082    5.5756700618
H        4.1116911654    2.5700446699    0.5694526405
H        3.3244829184    2.4607061413   -1.0060105115
H        0.2945706828   -3.2769899492    4.5084206102
25   

C       -0.0131326904    0.2326633444    1.6523119998
C        1.6473094957   -0.6079978665    3.1289485267
C       -0.8614874188   -0.7766176235    2.1073988676
C        1.2752272714    0.3374285869    2.1769973632
C        0.7388005652   -1.5931723743    3.5240681408
C        2.2928626729    1.3492863493    1.7544323251
C        2.6183563740    4.1246356810    0.3855719421
C        2.3739516969   -2.7885810332    5.0121136834
C        3.0333385460    2.7164440894   -0.0299081840
N       -0.4912666428   -1.6754540879    3.0304738611
N        1.0371829300   -2.5675279377    4.4467659185
O        3.2076253804    1.6910240964    2.4992489317
O        2.1031844690    1.7486963904    0.4769495955
H       -0.3610632548    0.9256432632    0.8963124467
H        2.6375901695   -0.5785955416    3.5617671764
H       -1.8615386354   -0.8402602405    1.6944011668
H        1.6097262307    4.3421675101    0.0216686449
H        2.6344252365    4.2223908750    1.4753685566
H        3.3113950649    4.8567754531   -0.0389497931
H        3.1081070157   -2.9356605426    4.2128958168
H        2.3686470549   -3.6862547056    5.6385195272
H        2.6732713835   -1.9381198165    5.6333865989
H        4.0505193248    2.5092626080    0.3210333404
H        3.0463504871    2.6538566580   -1.1225592413
H        0.2666842659   -3.2077189170    4.6026590481
25   

C        0.0079498375    0.1322046132    1.5457535374
C        1.6517749399   -0.6378501857    3.0786437968
C       -0.8513052084   -0.8437445666    2.0501065593
C        1.2967201392    0.2531015914    2.0689075051
C        0.7322685037   -1.5920601087    3.5215158511
C        2.3240808932    1.2414399867    1.6137058883
C        2.6697280511    4.1512835255    0.5571097753
C        2.3446275301   -2.7108658862    5.0920686254
C        2.9106865523    2.7865933163   -0.0810912886
N       -0.4945379932   -1.6929837675    3.0237364770
N        1.0148357072   -2.5135136202    4.5018487031
O        3.3513451591    1.4436901101    2.2565442542
O        1.9878642539    1.8184027493    0.4385311760
H       -0.3350653668    0.7865095578    0.7538591791
H        2.6373281145   -0.5952202827    3.5210118751
H       -1.8497048674   -0.9213359582    1.6354957640
H        1.6402482354    4.4745282166    0.3761512316
H        2.8459028480    4.1055783792    1.6361428601
H        3.3517695664    4.8892377777    0.1249138515
H        3.0850372515   -2.9097305153    4.3100058518
H        2.3265288233   -3.5701853104    5.7699052843
H        2.6448394809   -1.8276945170    5.6654403516
H        3.9476341397    2.4748135538    0.0871467350
H        2.7657420208    2.8659672184   -1.1630582861
H        0.2382432147   -3.1383627345    4.6869143835
25   

C        0.0014647512    0.0232529921    1.4471722927
C        1.6331767285   -0.6590573192    3.0337092134
C       -0.8620722468   -0.9224977711    1.9993762652
C        1.2886617472    0.1698137672    1.9688291751
C        0.7095276948   -1.5862156133    3.5229892298
C        2.3164778368    1.1413422201    1.4788156812
C        2.7401601919    4.1390549819    0.7286298437
C        2.3081457149   -2.6137533158    5.1680693821
C        2.7782793086    2.8526383847   -0.0906054543
N       -0.5130962575   -1.7157039975    3.0217504749
N        0.9826265539   -2.4480323910    4.5587150552
O        3.4312454142    1.2111947101    1.9909388828
O        1.8634430729    1.8860432065    0.4460764992
H       -0.3383535520    0.6338910046    0.6198219755
H        2.6136319874   -0.5916102567    3.4841739234
H       -1.8578819180   -1.0221889312    1.5832611051
H        1.7247788423    4.5463130495    0.7420794727
H        3.0625322581    3.9477227463    1.7566642331
H        3.4115374169    4.8809484847    0.2865761176
H        3.0537017497   -2.8562325344    4.4033843103
H        2.2842893525   -3.4341825915    5.8923199771
H        2.6055670098   -1.7004760654    5.6937468658
H        3.8002506490    2.4580221603   -0.1163859416
H        2.4892495211    3.0759387473   -1.1223792259
H        0.2046077301   -3.0621324579    4.7716544091
