66

C      5.97468   -4.46052    1.85856
C      7.33137   -2.54105    2.39642
C      4.20619   -2.60298    0.31481
C     -0.39814    0.08160    4.40845
C      6.95262   -5.30332    2.38629
C      8.31038   -3.37668    2.92648
C      3.15753   -1.80855   -0.14771
C     -0.48906    0.26208    3.03161
C      4.90304   -0.86945    1.85675
C      1.08894   -1.56323    2.73413
C      6.13759   -3.06126    1.85868
C      5.07747   -2.16831    1.33335
C      0.46443   -0.87226    4.97223
C      3.86798   -0.06439    1.39899
C      1.22300   -1.70115    4.12222
C      8.12218   -4.76370    2.92666
C      2.97766   -0.55380    0.43719
C      0.26722   -0.56964    2.20227
C      1.55076   -4.69611    3.14500
C      0.59713   -0.92727    6.48207
C      1.36934   -2.14743    6.98975
C      2.61171   -2.37473    6.12517
C      2.26136    1.63945    0.89814
C      2.23029   -2.70458    4.67134
C      3.49953    1.35131    1.81082
C      3.15035    1.44326    3.30744
C      4.64046    2.33183    1.48202
C      1.72255   -4.16512    4.56006
C      9.16156   -5.65347    3.55028
N      1.91912    0.36684    0.19395
O      0.53124   -5.17284    2.71003
O      0.23397   -1.47621   -0.30672
O     -0.56666    0.90572    0.17925
O      2.66844   -4.63875    2.35335
F      9.06545   -6.93570    3.12568
F     10.42242   -5.23088    3.27977
F      9.04968   -5.68198    4.90869
S      0.32007   -0.22633    0.44152
H      5.07606   -4.90579    1.44298
H      7.51247   -1.47108    2.37189
H      4.34660   -3.58108   -0.13301
H     -0.98648    0.71600    5.06793
H      6.80323   -6.37830    2.37538
H      9.22824   -2.95316    3.32336
H      2.47342   -2.16979   -0.90565
H     -1.12244    1.02882    2.59753
H      5.55334   -0.50989    2.64983
H      1.65311   -2.20690    2.06948
H      1.11643   -0.01497    6.80618
H     -0.39897   -0.88407    6.93609
H      1.65445   -1.99585    8.03573
H      0.72772   -3.03528    6.96698
H      3.22467   -1.46452    6.13356
H      3.23271   -3.17893    6.53430
H      1.40385    2.00762    1.46307
H      2.49729    2.38405    0.13420
H      3.14308   -2.60411    4.06816
H      2.85998    2.46648    3.57087
H      4.01641    1.17309    3.92169
H      2.32849    0.77631    3.57040
H      4.33074    3.36405    1.68162
H      4.93239    2.25696    0.43002
H      5.52381    2.12273    2.09440
H      2.43790   -4.82280    5.07150
H      0.75616   -4.27590    5.05196
H      3.40141   -4.21532    2.83291
