39

C      2.75568   -0.33076   -5.21905
C      2.63734   -1.11254   -4.06305
C      2.44804    1.03353   -5.18728
C      2.21017   -0.53487   -2.86583
C      2.01396    1.62571   -3.99752
C     -4.00411    0.67742    1.20917
C     -2.88160   -0.67410    0.04862
C      1.90245    0.82868   -2.85704
C      0.09717   -0.80349    0.52657
C      0.40172   -2.55820    2.32731
C      1.75587   -2.03919    1.97817
C      0.56090   -1.08759    1.90734
C      0.43557   -0.00991    2.96844
C     -0.40609    1.01671   -1.17180
C     -0.64087    0.52977    0.25787
N     -4.11889   -0.47306    0.47972
N     -2.78146    1.19428    1.25542
N     -2.06337    0.30958    0.50344
O      0.20251   -1.60499   -0.39731
O      2.07191    0.97115   -0.20315
O      1.32704    3.04348   -1.50771
S      1.33712    1.58325   -1.32945
H      3.09165   -0.78676   -6.14656
H      2.88082   -2.17087   -4.09253
H      2.54799    1.63731   -6.08489
H      2.11198   -1.12492   -1.96037
H      1.77816    2.68385   -3.94125
H     -4.83620    1.14440    1.72014
H     -2.53227   -1.49376   -0.56509
H     -0.08833   -3.21272    1.61420
H      0.15220   -2.72412    3.37096
H      2.46499   -1.83834    2.77520
H      2.18495   -2.33742    1.02803
H      0.78251   -0.39448    3.93188
H     -0.60001    0.31914    3.10176
H      1.05321    0.85935    2.72050
H     -1.03270    1.87776   -1.40956
H     -0.56467    0.21055   -1.88878
H     -0.33743    1.29432    0.96845
