41

C     -2.30770   -1.80053    2.12852
C     -2.98281    0.47123    1.72370
C     -3.63293   -2.15945    2.37882
C     -4.31391    0.13211    1.97263
C     -0.67905    0.81577    5.52714
C     -1.27289    2.27201    4.13114
C     -1.96082   -0.48537    1.79438
C     -4.63071   -1.18687    2.29801
C     -1.10191    0.45983   -1.00879
C     -0.98872   -1.03741   -0.95211
C     -0.17992   -0.18443    0.00670
C      3.76556   -1.71190   -0.58706
C     -0.12751    1.24982    2.09496
C      2.32139   -1.68239   -0.09054
C     -0.48882   -0.14651    1.51772
N     -1.39731    1.96661    5.41832
N     -0.11834    0.40413    4.39293
N     -0.50952    1.35660    3.49790
O      2.25399    0.96424    0.34419
O      1.59776    0.07963   -1.94660
O      0.35681   -1.13118    2.11340
S      1.58519   -0.06542   -0.47641
Cl    -6.29902   -1.62462    2.61609
H     -1.52483   -2.54781    2.19594
H     -2.76152    1.50510    1.47739
H     -3.88898   -3.18227    2.63710
H     -5.09441    0.88453    1.92117
H     -0.56046    0.26739    6.45247
H     -1.70247    3.13029    3.63086
H     -0.63335    0.96191   -1.84776
H     -2.00617    0.91915   -0.62734
H     -1.80579   -1.60682   -0.52490
H     -0.45434   -1.51714   -1.76521
H      3.81724   -1.56186   -1.66784
H      4.36396   -0.94037   -0.09613
H      4.20159   -2.68709   -0.34996
H      0.94641    1.40042    1.99482
H     -0.63346    2.04810    1.55095
H      2.23090   -1.80102    0.98786
H      1.69535   -2.42612   -0.58950
H      0.36648   -0.94644    3.07980
