39

C      1.16955   -2.12434   -1.22257
C      1.76729   -3.36634   -1.47755
C      1.59379   -2.41613    1.12776
C      1.07154   -1.64134    0.08067
C      2.27788   -4.14014   -0.43211
C      2.19898   -3.64477    0.89063
C      0.41963    1.70613   -0.75659
C      5.23168   -2.40246    1.09708
C      6.28533   -3.17645    1.85672
C      1.40977    0.68027    1.09063
C      4.83068   -3.26920    2.27172
C      0.42845   -0.30714    0.39870
C     -0.86990   -0.46993    1.19595
C      2.91211   -5.92132   -1.89728
C      4.08967   -4.56091    2.04013
N      1.00193    1.93469    0.47704
O      0.19525    2.51013   -1.63399
O      0.09483    0.37812   -0.84232
O      2.86992   -5.36550   -0.58625
O      2.65653   -4.37636    1.96163
H      0.78039   -1.53531   -2.04520
H      1.82000   -3.72115   -2.50073
H      1.55331   -2.07790    2.16007
H      5.19258   -1.32449    1.22348
H      4.96377   -2.74598    0.10245
H      6.72851   -4.04150    1.37012
H      6.96550   -2.62986    2.50289
H      1.26975    0.69100    2.17508
H      2.45206    0.42276    0.86553
H      4.55462   -2.74729    3.18547
H     -1.29215    0.51020    1.43864
H     -0.68505   -1.01584    2.12526
H     -1.59535   -1.03240    0.60324
H      3.38754   -6.89725   -1.79097
H      3.50625   -5.29940   -2.57826
H      1.90309   -6.05049   -2.30679
H      4.22173   -5.24211    2.88492
H      4.45031   -5.05848    1.13445
H      1.56250    2.77322    0.55776
