29   

C        2.3219429509   -3.3711274775    0.4959143326
C        3.1980671899   -2.5967098328    1.2588686256
C        0.9444485231   -3.2463673193    0.6854201007
C        2.6974110174   -1.7147395468    2.2231506994
C        0.4430115376   -2.3632149515    1.6478244402
C       -0.1729299020   -3.4795721157    5.7546655159
C        0.4103199615   -4.7287620933    5.9783923852
C       -1.1138266640   -4.3115809536    3.6967342441
C        1.3108384069   -1.6114618286    2.4591259217
C       -0.9286309698   -3.2545131782    4.6001134731
C        0.2463579507   -5.7762524760    5.0635810657
C       -0.5288716984   -5.5651624160    3.9090278991
C        0.8672672910   -0.6482524085    3.4698439638
C       -0.3002261262   -0.4753195610    4.1185626354
O       -2.5075361930   -1.6525071768    3.0647610983
O       -2.4794475089   -1.2138673313    5.4591502381
S       -1.6895583781   -1.6263124025    4.2889226114
Cl       1.0013762785   -7.3235513914    5.3777001023
Cl      -0.7748097830   -6.8391840973    2.7340727269
H        2.7081598125   -4.0562885437   -0.2506266814
H        4.2677772802   -2.6790662415    1.1024470797
H        0.2595868668   -3.8249646523    0.0754945213
H        3.3994962545   -1.1232992562    2.8002167430
H       -0.6285770940   -2.2553568650    1.7178050010
H       -0.0398870886   -2.6826239527    6.4812374422
H        0.9982485182   -4.8948967955    6.8732372300
H       -1.7225378383   -4.1644928590    2.8089066021
H        1.6253568313    0.0751698308    3.7522466949
H       -0.4377153521    0.4187654315    4.7077456512
29   

C        2.1688364138   -3.5525737073    0.6817139876
C        3.0575542816   -2.9055682001    1.5438570602
C        0.8156479695   -3.2069352826    0.6937041385
C        2.5900918421   -1.9283867277    2.4300300133
C        0.3474979067   -2.2300664315    1.5792357542
C       -0.1065263310   -3.4263032034    5.7117596416
C        0.5522658768   -4.6443437522    5.8955416269
C       -0.9818966751   -4.2417002969    3.6189098787
C        1.2209392305   -1.6029353583    2.4840970223
C       -0.8667185640   -3.2075166304    4.5591863848
C        0.4607097253   -5.6659576068    4.9418444294
C       -0.3202934428   -5.4626177925    3.7900276096
C        0.7885850688   -0.5637590292    3.4267177528
C       -0.3743241938   -0.4020685206    4.0822573255
O       -2.5499697850   -1.6657819069    3.0766713835
O       -2.4859113927   -1.2415516511    5.4757336264
S       -1.7079002839   -1.6126173927    4.2836994943
Cl       1.3138493777   -7.1714201970    5.2033848319
Cl      -0.4751927065   -6.7036930956    2.5653053926
H        2.5293696059   -4.3120885978   -0.0031914508
H        4.1107913679   -3.1621878318    1.5258830961
H        0.1270817980   -3.6891576597    0.0087479101
H        3.2961880180   -1.4382982756    3.0910334215
H       -0.6971706149   -1.9506892656    1.5310713829
H       -0.0260585096   -2.6476521682    6.4653784364
H        1.1450916834   -4.8054624372    6.7879867135
H       -1.5894161474   -4.0980359126    2.7297834457
H        1.5487702479    0.1719018321    3.6691768534
H       -0.5411145231    0.5038908018    4.6449293596
29   

C        1.9550048544   -3.7089320299    0.8286029227
C        2.8092662833   -3.2513204661    1.8357221576
C        0.7023648424   -3.1141185573    0.6567214407
C        2.4073416923   -2.2072085649    2.6767166036
C        0.2979180097   -2.0740027878    1.5006327658
C       -0.0853558321   -3.3882575358    5.6852536571
C        0.6455313962   -4.5679821251    5.8470823393
C       -0.8667310041   -4.1929837842    3.5515909028
C        1.1372304989   -1.6222771799    2.5329554373
C       -0.8329659652   -3.1813579120    4.5222408796
C        0.6386215868   -5.5629074050    4.8611906035
C       -0.1332627705   -5.3750087559    3.7008930714
C        0.7369044206   -0.5324933946    3.4406843584
C       -0.4296955076   -0.3681635046    4.0831935455
O       -2.5434291635   -1.6835273532    3.0241767493
O       -2.5422454857   -1.2832246369    5.4338451228
S       -1.7322571969   -1.6163752215    4.2517852301
Cl       1.5880016781   -7.0148746104    5.0914615080
Cl      -0.1824252720   -6.5837177398    2.4355588300
H        2.2648026006   -4.5197882589    0.1786187644
H        3.7838784651   -3.7080376439    1.9658981631
H        0.0421619005   -3.4567664292   -0.1323117418
H        3.0802527549   -1.8657121154    3.4552139010
H       -0.6703215081   -1.6119406668    1.3393185932
H       -0.0648069087   -2.6269184559    6.4602292038
H        1.2320480156   -4.7182027392    6.7455549029
H       -1.4583886929   -4.0561392110    2.6507864627
H        1.5145719263    0.1857328761    3.6797701410
H       -0.6162383110    0.5358610414    4.6424989301
29   

C        1.8472007204   -3.7478442615    0.8904289387
C        2.6267176967   -3.3935920308    1.9955354740
C        0.6930529175   -3.0184695650    0.5909880992
C        2.2526323354   -2.3112453346    2.8003170364
C        0.3161369737   -1.9401965198    1.3989564219
C       -0.0779150484   -3.3635486169    5.6552651162
C        0.6732838827   -4.5295142333    5.8249521149
C       -0.8012823669   -4.1711209701    3.5019892540
C        1.0907881315   -1.5767877120    2.5123706319
C       -0.8074733505   -3.1651086170    4.4791498637
C        0.7025368881   -5.5202540697    4.8352984986
C       -0.0516356577   -5.3419279855    3.6619337579
C        0.6919943487   -0.4564548508    3.3922654672
C       -0.4509102876   -0.3416796510    4.0807140972
O       -2.5003094480   -1.6863127338    2.9419431402
O       -2.5848182187   -1.3128981585    5.3567488523
S       -1.7320328290   -1.6163559827    4.1968919923
Cl       1.6754569207   -6.9547954511    5.0765179874
Cl      -0.0584394426   -6.5488858127    2.3938448407
H        2.1350791950   -4.5883112788    0.2685793111
H        3.5195372859   -3.9616940404    2.2311144337
H        0.0856066314   -3.2892776036   -0.2654651612
H        2.8614567342   -2.0519698758    3.6590730788
H       -0.5842529896   -1.3835150453    1.1578180982
H       -0.0861771570   -2.6058286315    6.4339690899
H        1.2468149750   -4.6726136174    6.7329773768
H       -1.3742949397   -4.0380810831    2.5886090468
H        1.4527679661    0.2937518709    3.5823563588
H       -0.6458007003    0.5392770747    4.6728753954
29   

C        2.0815791135   -3.2007986381    0.8073792863
C        2.3632242917   -3.9910056979    1.9260754106
C        1.8248691588   -1.8356558654    0.9663637316
C        2.3931614368   -3.4154900668    3.2016116832
C        1.8530174376   -1.2614249452    2.2419765124
C       -0.8249639308   -3.9145304930    4.9266604589
C       -0.9392572928   -5.1887460231    4.3641695998
C       -1.0268417822   -2.9507059792    2.7257297970
C        2.1472752585   -2.0436623913    3.3688127183
C       -0.8487464547   -2.7820597606    4.1066987321
C       -1.0924296024   -5.3570955633    2.9821039859
C       -1.1461853778   -4.2223568126    2.1532925636
C        2.1380856025   -1.4559277123    4.7318931350
C        1.0608777457   -1.0821932333    5.4302754968
O       -0.8100531701   -0.0829548080    3.7617344539
O       -1.5529544817   -0.9115668753    5.9397630668
S       -0.6372748569   -1.1085334116    4.8050429236
Cl      -1.2111098751   -6.9709024117    2.3155214509
Cl      -1.3456281277   -4.3719647542    0.4203867366
H        2.0535273992   -3.6473503592   -0.1804372468
H        2.5506402913   -5.0519404091    1.8050080476
H        1.5970906879   -1.2210627762    0.1025432735
H        2.5998927445   -4.0397223369    4.0635386744
H        1.6365261045   -0.2039324622    2.3590033205
H       -0.7088299967   -3.8049413350    6.0014169435
H       -0.9080011310   -6.0636946835    5.0025511253
H       -1.0583817934   -2.0798124387    2.0768611898
H        3.0903747557   -1.4450388136    5.2522296644
H        1.1602230373   -0.7226257785    6.4429278780
29   

C        2.1001371839   -3.2793037191    0.8611317461
C        2.2728886495   -4.0141826183    2.0381541823
C        1.9397061698   -1.8916657352    0.9241279533
C        2.2877670053   -3.3612636486    3.2760795398
C        1.9577092673   -1.2397402323    2.1622127374
C       -0.7994237515   -3.9542808273    4.9175473290
C       -0.9080063864   -5.2110881178    4.3153783511
C       -1.0269166864   -2.9229518434    2.7494450684
C        2.1401816937   -1.9678322427    3.3463124774
C       -0.8394185847   -2.7965918827    4.1338598432
C       -1.0730097217   -5.3366453430    2.9299702499
C       -1.1430536990   -4.1766633795    2.1381278601
C        2.1264060470   -1.2895134311    4.6700026622
C        1.0602188145   -1.0368348903    5.4342764506
O       -0.9284191743   -0.0923693513    3.8833853485
O       -1.5321463651   -1.0222170483    6.0612313865
S       -0.6601313153   -1.1412342059    4.8819518204
Cl      -1.1861525835   -6.9291838690    2.2131797896
Cl      -1.3591399065   -4.2726228394    0.4033854355
H        2.0812104838   -3.7855898588   -0.0976744561
H        2.3855223798   -5.0914487053    1.9915483543
H        1.7955579651   -1.3199982819    0.0140945959
H        2.4097330820   -3.9405719543    4.1842913909
H        1.8175541310   -0.1643329984    2.2057660317
H       -0.6788570380   -3.8776808530    5.9947489545
H       -0.8653419897   -6.1058340129    4.9250799496
H       -1.0717904700   -2.0320892325    2.1289783575
H        3.0997378988   -1.0562757991    5.0895659703
H        1.1829262923   -0.6686668871    6.4412775847
29   

C        2.7880131176   -4.2959019033    2.0008043803
C        3.1454714564   -4.1036176508    3.3386753174
C        2.0478416100   -3.3163440136    1.3324599213
C        2.7582741725   -2.9364868623    4.0068926939
C        1.6643492423   -2.1492579622    2.0026072031
C       -0.3983705457   -4.1793607973    3.9962003325
C       -0.7767471496   -4.8744921985    2.8471866176
C       -1.7264608225   -2.2989170966    3.2793599502
C        2.0025143710   -1.9545791265    3.3505991127
C       -0.8572697787   -2.8758933127    4.2151934292
C       -1.6183305777   -4.2878178875    1.8958417780
C       -2.1039330816   -2.9853198635    2.1171748154
C        1.6164645780   -0.7049149725    4.0536402430
C        0.6689720958   -0.5680780713    4.9868592657
O       -1.4469855895   -1.3783004143    6.4009672277
O        0.5583560704   -2.7740286254    6.5355362315
S       -0.2951351352   -1.9359219141    5.6753523263
Cl      -2.0408842290   -5.1815281016    0.4517816790
Cl      -3.1576953338   -2.2036942257    0.9587675273
H        3.0868106099   -5.1999906230    1.4820131535
H        3.7238250979   -4.8573631323    3.8612914250
H        1.7691534200   -3.4601329948    0.2945238437
H        3.0370341055   -2.7967188655    5.0469102562
H        1.0899034879   -1.3964480462    1.4742441546
H        0.2716032959   -4.6465029134    4.7137129010
H       -0.4030142249   -5.8779369927    2.6826506297
H       -2.1057824223   -1.2946950422    3.4430830228
H        2.0706565555    0.2074051629    3.6805685485
H        0.4270199234    0.4032627882    5.3901741587
29   

C        2.8470253837   -4.2855600634    2.0180923194
C        3.0670724352   -4.1107889321    3.3872691888
C        2.2078410578   -3.2821480836    1.2845505683
C        2.6400282118   -2.9390194823    4.0219433503
C        1.7871549989   -2.1086459143    1.9203965859
C       -0.4115911897   -4.1919461429    3.9947009826
C       -0.8039621809   -4.8719972745    2.8413370049
C       -1.7304043643   -2.2943895384    3.3074320541
C        1.9831324431   -1.9310626064    3.2986739001
C       -0.8574057227   -2.8868595453    4.2296919092
C       -1.6496187262   -4.2695598625    1.9034313739
C       -2.1240346963   -2.9661917224    2.1424893210
C        1.5350846803   -0.6883072074    3.9660982485
C        0.6707270690   -0.5830064508    4.9832800024
O       -1.4107491651   -1.4095183008    6.4386670440
O        0.5994989432   -2.8000674765    6.5279039808
S       -0.2712553598   -1.9590937220    5.6880456513
Cl      -2.0924224093   -5.1454870064    0.4545676204
Cl      -3.1835844485   -2.1652035860    1.0027303539
H        3.1749884654   -5.1942642242    1.5256480753
H        3.5697052196   -4.8815671546    3.9608925578
H        2.0363239325   -3.4127418070    0.2219378392
H        2.8192739797   -2.8146964805    5.0855438535
H        1.2895739607   -1.3396226628    1.3399965651
H        0.2594419714   -4.6720435775    4.7025349482
H       -0.4393613894   -5.8764633980    2.6630867225
H       -2.0997889025   -1.2886536633    3.4839853167
H        1.8591439352    0.2400332224    3.5067922093
H        0.4399955758    0.3813622623    5.4093766040
29   

C        2.9377653339   -4.2201747007    1.9827611934
C        2.9750301700   -4.1078626907    3.3747020988
C        2.4428140977   -3.1626595867    1.2157577899
C        2.5064765156   -2.9457302140    3.9975422686
C        1.9810759271   -1.9987320433    1.8405396735
C       -0.4719659483   -4.1818866403    4.0735253198
C       -0.8817907354   -4.8995596091    2.9493293214
C       -1.7546467172   -2.2874429634    3.3136865829
C        1.9906428089   -1.8803797955    3.2396474813
C       -0.8907629910   -2.8596614180    4.2567924311
C       -1.7207829598   -4.3191603427    1.9915539517
C       -2.1677719728   -2.9978807525    2.1791690133
C        1.4740279099   -0.6565091255    3.8779540664
C        0.6641752122   -0.5463310133    4.9421104181
O       -1.4356826374   -1.3002695908    6.4075771579
O        0.5502016433   -2.7130562467    6.5622623888
S       -0.2986353155   -1.8894236008    5.6839901953
Cl      -2.1928460170   -5.2458804569    0.5841015387
Cl      -3.2205931239   -2.2238023931    1.0148507992
H        3.2973679138   -5.1216018470    1.4990910331
H        3.3708825167   -4.9190008246    3.9756003159
H        2.4145751939   -3.2442061345    0.1349374191
H        2.5620235784   -2.8718470391    5.0783513559
H        1.5942371316   -1.1902443571    1.2301603434
H        0.1875203813   -4.6486325251    4.8008637327
H       -0.5398789491   -5.9182390745    2.8109560299
H       -2.1052154856   -1.2690640995    3.4519526894
H        1.7218408215    0.2721695914    3.3739802568
H        0.4567241187    0.4247426205    5.3651638725
29   

C        3.0354779762   -4.0342735217    1.7318051623
C        2.7685757139   -4.1483880079    3.0970522774
C        2.8210318234   -2.8154488448    1.0864698287
C        2.2771234725   -3.0503917830    3.8117232414
C        2.3315977352   -1.7183501098    1.8038115282
C       -0.6796775371   -4.3059495442    4.3340123988
C       -1.1066607403   -5.1046515283    3.2723024828
C       -1.5976366314   -2.3705000713    3.2270425547
C        2.0358168978   -1.8186730847    3.1748676121
C       -0.9102696872   -2.9257694478    4.3147147479
C       -1.7733701656   -4.5474466264    2.1751941483
C       -2.0244975429   -3.1628847141    2.1537527446
C        1.4875024921   -0.6491378751    3.8708062028
C        0.6529315345   -0.5596063127    4.9213517992
O       -1.4774251379   -1.2548894104    6.3672195254
O        0.4915248355   -2.6578041722    6.6275972771
S       -0.3298866805   -1.8750751108    5.6882611086
Cl      -2.2815642505   -5.5824166821    0.8586160073
Cl      -2.8566519156   -2.4136483833    0.8085650564
H        3.4143203551   -4.8855207904    1.1771238373
H        2.9497667709   -5.0871122620    3.6082142538
H        3.0314736076   -2.7197881173    0.0271369845
H        2.1182903882   -3.1656114887    4.8757796460
H        2.1653614003   -0.7843113985    1.2786393185
H       -0.1629701034   -4.7588639660    5.1767389728
H       -0.9192254684   -6.1716031154    3.2947617691
H       -1.8020011960   -1.3045992627    3.2036717991
H        1.7652095723    0.3052608815    3.4349341340
H        0.4493393734    0.4114968109    5.3467507284
29   

C        3.3429266629   -3.9363166411    1.7048465014
C        2.8302027488   -4.1449188059    2.9852516279
C        3.2550806038   -2.6702081753    1.1266669681
C        2.2226000431   -3.0939809021    3.6813657899
C        2.6479574973   -1.6207678618    1.8247661525
C       -0.7890838627   -4.3437607253    4.3985597641
C       -1.3004723234   -5.1635883993    3.3912739739
C       -1.7283111684   -2.4207681579    3.2874476791
C        2.1088345871   -1.8098534557    3.1117901053
C       -0.9890622055   -2.9593962984    4.3494686423
C       -2.0229936199   -4.6239474813    2.3208134416
C       -2.2412533603   -3.2347141500    2.2694959043
C        1.4424836690   -0.6768155944    3.7569882841
C        0.6016603581   -0.5815683806    4.8046188615
O       -1.4307306574   -1.2474600607    6.3938925459
O        0.5503714792   -2.6439979269    6.5700341833
S       -0.3239201332   -1.8816407519    5.6624961727
Cl      -2.6427201391   -5.6863117898    1.0756647761
Cl      -3.1422836704   -2.5066373658    0.9572966684
H        3.8124514638   -4.7513743749    1.1653343833
H        2.9101880714   -5.1223530736    3.4473493106
H        3.6550178139   -2.5002840880    0.1332799191
H        1.8803997645   -3.2988214560    4.6836426429
H        2.5858229421   -0.6502721283    1.3450376639
H       -0.2364782571   -4.7846066616    5.2248743495
H       -1.1394893399   -6.2341842858    3.4372514045
H       -1.9114990192   -1.3516163401    3.2428580079
H        1.6713602186    0.2821760963    3.3033002245
H        0.3531268178    0.4011800926    5.1762717180
29   

C        2.8480703869   -2.1962012538    0.3981789634
C        1.4892014722   -2.1444959050    0.7054682809
C        3.7858454979   -1.8887233466    1.3823863770
C        1.0691152271   -1.7926639028    1.9932226473
C        3.3631086799   -1.5369781039    2.6687656349
C       -0.7086512372   -4.1788903839    5.3648180032
C       -0.6496622587   -5.5531262976    5.1237043122
C       -1.4876495068   -3.8358911646    3.1090922056
C        1.9959776804   -1.4836688375    3.0097179211
C       -1.1132118417   -3.3030034819    4.3518416400
C       -0.9988312017   -6.0819544777    3.8754291314
C       -1.4264990626   -5.2118169974    2.8560187402
C        1.6517682300   -1.1550317751    4.3938911743
C        0.5039679391   -1.0449878674    5.0926639046
O       -1.6784636639   -0.7798923232    3.4767801591
O       -2.0412145231   -1.2540723957    5.8385150274
S       -1.1947136314   -1.5061727183    4.6624387826
Cl      -0.9042683120   -7.8098291988    3.6128472570
Cl      -1.8858032757   -5.8180166622    1.2794550878
H        3.1721075765   -2.4701731460   -0.5997241647
H        0.7535153874   -2.3732399604   -0.0575227640
H        4.8443991507   -1.9249505894    1.1506089963
H        0.0082184623   -1.7504559638    2.1582124283
H        4.1205489120   -1.3112143616    3.4110659028
H       -0.4428708550   -3.7920485190    6.3449050163
H       -0.3321788577   -6.2244345335    5.9129789517
H       -1.8398328999   -3.1770132832    2.3202326921
H        2.5178850285   -0.9047354196    4.9978039206
H        0.5606223345   -0.6498355386    6.0957573181
29   

C        2.5736479686   -2.6841054909    0.6593564359
C        1.2555543981   -2.2935463319    0.8950935601
C        3.5375158461   -2.4843900154    1.6475598388
C        0.9003021654   -1.7157603927    2.1189710360
C        3.1794082122   -1.9072763347    2.8708837073
C       -0.3688838442   -4.1257294851    5.3947964163
C       -0.1329938505   -5.4675033617    5.0871735290
C       -1.3046066545   -3.8084831411    3.1956208625
C        1.8521548331   -1.5215584822    3.1399369982
C       -0.9430040693   -3.2778256646    4.4428575091
C       -0.4698196882   -5.9904736720    3.8325875324
C       -1.0664137405   -5.1499327290    2.8754609391
C        1.5406387527   -0.9859316772    4.4666903558
C        0.3870297600   -0.8071182444    5.1389706228
O       -1.9174325359   -0.8445538334    3.7017106193
O       -2.0347262204   -1.4128871711    6.0651193619
S       -1.2493988170   -1.5209996399    4.8262046225
Cl      -0.1487211837   -7.6752881703    3.4845716297
Cl      -1.5150057143   -5.7493385215    1.2931996625
H        2.8477847571   -3.1338119654   -0.2885534398
H        0.5048128265   -2.4302702680    0.1247279207
H        4.5647352264   -2.7815316301    1.4684015144
H       -0.1209590776   -1.3885696306    2.2346909645
H        3.9482787396   -1.7762782688    3.6241499738
H       -0.1069283978   -3.7421072759    6.3770907459
H        0.3160454542   -6.1178960564    5.8283680244
H       -1.7797510726   -3.1723396796    2.4539576178
H        2.4138625713   -0.6574908830    5.0210836987
H        0.4081520230   -0.2330198416    6.0530006713
29   

C        2.3663953612   -2.8759614419    0.7559420291
C        1.1397186066   -2.2298867780    0.9152374649
C        3.3042535788   -2.8402213627    1.7890421530
C        0.8467038009   -1.5625741660    2.1097194451
C        3.0090925702   -2.1710540790    2.9820964198
C       -0.2856654314   -4.0826929525    5.3890114360
C        0.0357481232   -5.4022386178    5.0622350228
C       -1.1454302484   -3.7641379456    3.1595836562
C        1.7694638624   -1.5350269365    3.1722012215
C       -0.8638144394   -3.2443578491    4.4314054258
C       -0.2179978994   -5.9115919986    3.7824932473
C       -0.8202229906   -5.0818680794    2.8197596389
C        1.4908088535   -0.8916382573    4.4613580667
C        0.3362431087   -0.7085524134    5.1266550653
O       -1.9684059084   -0.8640621280    3.7079519743
O       -2.0440093661   -1.4454161797    6.0723939971
S       -1.2623974431   -1.5091446955    4.8278727584
Cl       0.2141245399   -7.5658861945    3.4094226879
Cl      -1.1643951839   -5.6635046865    1.2050031816
H        2.5916641140   -3.3966653853   -0.1682075982
H        0.4139981493   -2.2391917911    0.1096142468
H        4.2610481554   -3.3355193552    1.6676129033
H       -0.0974278950   -1.0391119810    2.1829793760
H        3.7496424735   -2.1658878171    3.7740867220
H       -0.0843877337   -3.7077190524    6.3887901956
H        0.4892357634   -6.0451646402    5.8071129861
H       -1.6186360365   -3.1343433394    2.4114166678
H        2.3722424967   -0.5371719441    4.9860029901
H        0.3326828952   -0.0888647230    6.0105185130
29   

C        2.1197968799   -2.9631687226    0.8078968851
C        1.0733961837   -2.0427863318    0.9003006075
C        2.9592762837   -3.1696460344    1.9050789515
C        0.8578452998   -1.3431125841    2.0927729486
C        2.7460220465   -2.4637613270    3.0945445224
C       -0.2632783777   -4.0374646140    5.3841989129
C        0.1408055106   -5.3347072853    5.0588588144
C       -0.9878844909   -3.7174101567    3.1075517719
C        1.6814244415   -1.5556637811    3.2119421285
C       -0.8134553231   -3.2081728710    4.4024547176
C       -0.0028226724   -5.8307316025    3.7568640111
C       -0.5808240730   -5.0126936142    2.7698419582
C        1.4503236379   -0.8541780291    4.4870516315
C        0.2923686732   -0.6566461929    5.1360410143
O       -1.9500556855   -0.8561639233    3.6339835412
O       -2.1078792099   -1.4405328804    5.9999154265
S       -1.2799893667   -1.4858030371    4.7846584725
Cl       0.5382590074   -7.4529497757    3.3851741993
Cl      -0.7880891452   -5.5786871376    1.1263315530
H        2.2814720076   -3.5123872950   -0.1130567787
H        0.4259581710   -1.8694520898    0.0478889275
H        3.7743222436   -3.8811833265    1.8354397387
H        0.0491810392   -0.6214495419    2.1373657335
H        3.4023689215   -2.6425842903    3.9387761195
H       -0.1415708432   -3.6701001058    6.3995261334
H        0.5763861807   -5.9693131139    5.8213341682
H       -1.4321739796   -3.0924941774    2.3379266851
H        2.3446147167   -0.5211189210    5.0038328283
H        0.2664555652   -0.0293037941    6.0139244569
29   

C        2.0206915407   -2.9781784611    0.8331015358
C        1.1112806869   -1.9176511875    0.8655589758
C        2.7463417594   -3.3054460653    1.9816987342
C        0.9200584754   -1.1942870457    2.0480045003
C        2.5580441227   -2.5766368230    3.1615124228
C       -0.2691715847   -4.0092391166    5.3803774464
C        0.1554189842   -5.3038662726    5.0702426784
C       -0.9162532558   -3.6955269659    3.0792624667
C        1.6295380704   -1.5256280174    3.2132946678
C       -0.7916228451   -3.1846330843    4.3794243943
C        0.0575852130   -5.8028246343    3.7651289603
C       -0.4930979697   -4.9901974362    2.7582392996
C        1.4232965841   -0.7666093958    4.4665115469
C        0.2768085410   -0.6301812098    5.1448541026
O       -1.9035242645   -0.8372205516    3.5616620621
O       -2.1519863942   -1.4171084982    5.9241156494
S       -1.2795268969   -1.4628421099    4.7403277048
Cl       0.6224850287   -7.4215109058    3.4137694208
Cl      -0.6458329546   -5.5623877759    1.1108163015
H        2.1626312616   -3.5451560081   -0.0803209961
H        0.5499436281   -1.6555634767   -0.0243998889
H        3.4526511392   -4.1276454679    1.9589262654
H        0.2106826598   -0.3724481519    2.0587410856
H        3.1240201864   -2.8441511391    4.0466553682
H       -0.1833101587   -3.6398166221    6.3986014955
H        0.5708956427   -5.9343746415    5.8472705098
H       -1.3331168992   -3.0719625150    2.2933221907
H        2.3186296726   -0.3763396825    4.9395583359
H        0.2398704282   -0.0292787539    6.0405482065
29   

C        1.9871607008   -3.0005385120    0.8745957834
C        1.1728484451   -1.8651339908    0.8371782721
C        2.6055264957   -3.3722101032    2.0716475111
C        0.9729124730   -1.1076883991    1.9966991920
C        2.4054868624   -2.6114848965    3.2291168689
C       -0.2600317508   -4.0230286722    5.3990474413
C        0.1634345586   -5.3145097901    5.0736217263
C       -0.9072474868   -3.6820735767    3.1014143120
C        1.5741603006   -1.4811642216    3.2071219398
C       -0.7828808654   -3.1867120179    4.4078370589
C        0.0621946161   -5.7992411895    3.7633555431
C       -0.4888542964   -4.9749071282    2.7662267013
C        1.3733435136   -0.6667190348    4.4319323276
C        0.2687478577   -0.6225120063    5.1838498702
O       -1.9160289932   -0.8425811909    3.6173442000
O       -2.1440490747   -1.4426071050    5.9782186686
S       -1.2797931341   -1.4713830375    4.7877696556
Cl       0.6240277503   -7.4148521049    3.3932502036
Cl      -0.6475913935   -5.5304787637    1.1136027026
H        2.1371830722   -3.5922337721   -0.0217049434
H        0.6923733777   -1.5713979760   -0.0894431350
H        3.2368277743   -4.2530233977    2.1037198515
H        0.3340049184   -0.2306194839    1.9592729057
H        2.8883232668   -2.9103695779    4.1526314765
H       -0.1739824674   -3.6657904024    6.4216060387
H        0.5793437995   -5.9543573625    5.8428071838
H       -1.3212804707   -3.0478679634    2.3223973437
H        2.2513880472   -0.1568594081    4.8150872262
H        0.2458154682   -0.0464423125    6.0961086299
29   

C        2.0007643334   -3.1046666140    0.9056618089
C        1.2681540584   -1.9229318415    0.7620687222
C        2.5020756684   -3.4624398978    2.1601976937
C        1.0360326527   -1.1028048521    1.8720927091
C        2.2660381226   -2.6413388452    3.2685019567
C       -0.2209409484   -4.0656128649    5.3690001300
C        0.1881544319   -5.3472564684    4.9895524084
C       -0.9547337149   -3.6572939807    3.1081780552
C        1.5203713477   -1.4595771127    3.1377556883
C       -0.7799620552   -3.2004701865    4.4230277110
C        0.0351858802   -5.7936515396    3.6705443514
C       -0.5529639649   -4.9405029381    2.7199094218
C        1.2976309745   -0.5725293548    4.3104135501
C        0.2614730286   -0.5972849427    5.1532333188
O       -2.0313728655   -0.8786516029    3.7705518669
O       -2.0450253013   -1.5166165927    6.1297498628
S       -1.2802920955   -1.5034394140    4.8726190009
Cl       0.5797335214   -7.3978981144    3.2316913893
Cl      -0.7779947590   -5.4481811126    1.0595481981
H        2.1775119693   -3.7432397875    0.0471970290
H        0.8778485413   -1.6413682899   -0.2095775465
H        3.0694616814   -4.3790928888    2.2751275041
H        0.4636914542   -0.1884113069    1.7525249446
H        2.6584702299   -2.9280618637    4.2375825777
H       -0.0987235807   -3.7396411109    6.3983875130
H        0.6314237720   -6.0101865155    5.7231271567
H       -1.3982323808   -3.0005890256    2.3647539007
H        2.1080495058    0.1099202581    4.5456003539
H        0.2688622521    0.0037128902    6.0495587128
29   

C        3.0351368188   -3.5150177444    2.1409447872
C        1.9432595846   -3.0683911811    1.3898992615
C        3.3212864986   -2.9206124801    3.3740549711
C        1.1432099450   -2.0243885056    1.8682491589
C        2.5190884634   -1.8787867976    3.8529349597
C        0.1962591644   -4.2880430379    4.3853736418
C        0.1131841000   -5.3007461721    3.4292161400
C       -1.8098755614   -3.2957710172    3.4887427961
C        1.4311536507   -1.4136391991    3.0994111207
C       -0.7574923086   -3.2649448772    4.4138204134
C       -0.9186597492   -5.3152696812    2.4844517770
C       -1.8957764962   -4.3026680016    2.5176436491
C        0.5522199119   -0.3315478905    3.6110391879
C       -0.3455938780   -0.4263983433    4.5971876953
O       -1.8625518835   -1.7345125738    6.3626066657
O        0.5498153553   -2.1141867254    6.5033126757
S       -0.6061623277   -1.8994821699    5.6153232420
Cl      -0.9668394855   -6.5848837987    1.2809987848
Cl      -3.2067329575   -4.2721160861    1.3584639152
H        3.6563056604   -4.3224511209    1.7694936933
H        1.7125884293   -3.5337913813    0.4381583216
H        4.1631480102   -3.2667998728    3.9632811594
H        0.2923125430   -1.6937052495    1.2830390250
H        2.7385402487   -1.4317268213    4.8177479524
H        1.0161939185   -4.2853648621    5.0992275433
H        0.8655318448   -6.0799934482    3.4098052492
H       -2.5686755527   -2.5192973542    3.5088322211
H        0.5576145521    0.5920471262    3.0411817491
H       -0.9804321060    0.4101590549    4.8459504898
29   

C        3.0802129114   -3.5022936068    2.1266390703
C        2.0583905169   -3.0168438923    1.3049616668
C        3.2540206603   -2.9705155208    3.4078816493
C        1.2137728298   -1.9989771614    1.7625588275
C        2.4053936545   -1.9573529772    3.8674252667
C        0.1762334712   -4.3086372887    4.4126478724
C        0.0872838918   -5.3168745788    3.4523571810
C       -1.8241409942   -3.3015590873    3.5203238038
C        1.3783338008   -1.4600618123    3.0493728685
C       -0.7700066731   -3.2786569943    4.4433634027
C       -0.9458319849   -5.3226333421    2.5088337201
C       -1.9179423626   -4.3055267748    2.5473419269
C        0.4625115355   -0.3997601923    3.5265953024
C       -0.3440239897   -0.4472087316    4.5943177991
O       -1.8527621057   -1.7264946039    6.3890031877
O        0.5576715598   -2.1188398006    6.5177112733
S       -0.6026060590   -1.9062200695    5.6348856241
Cl      -1.0023595230   -6.5874849280    1.3007650513
Cl      -3.2315222978   -4.2645943952    1.3914774023
H        3.7369385028   -4.2882480787    1.7705781283
H        1.9185558733   -3.4302415379    0.3124221874
H        4.0463994516   -3.3410276496    4.0487015816
H        0.4207872792   -1.6362510306    1.1180187186
H        2.5488109572   -1.5532045009    4.8648876240
H        0.9965959247   -4.3134453148    5.1259353072
H        0.8356781993   -6.0998111659    3.4286455294
H       -2.5772631141   -2.5196478584    3.5424742541
H        0.3558125364    0.4624270773    2.8761685940
H       -0.9508505937    0.4045383135    4.8609656904
29   

C        3.1691605875   -3.4155943785    2.0461980892
C        2.2471902398   -2.8245875662    1.1776623001
C        3.2053044947   -3.0290514365    3.3887190654
C        1.3589735640   -1.8526162543    1.6520216687
C        2.3133319525   -2.0618315247    3.8646082319
C        0.1131006360   -4.3359197669    4.4583706514
C        0.0098385366   -5.3602698839    3.5166838203
C       -1.8624345121   -3.3078269037    3.5354639081
C        1.3698433411   -1.4732091673    3.0057975980
C       -0.8132496329   -3.2874562661    4.4639344432
C       -1.0200316603   -5.3656844533    2.5694224373
C       -1.9722096211   -4.3293427720    2.5829951501
C        0.4228466449   -0.4465999240    3.4780043970
C       -0.3341251942   -0.4599271462    4.5854622072
O       -1.8966231734   -1.6880935393    6.3682559789
O        0.4993784003   -2.1275002237    6.5481227583
S       -0.6374779137   -1.9022100636    5.6386611838
Cl      -1.0996259230   -6.6562368978    1.3901211943
Cl      -3.2827391515   -4.2882372300    1.4236518135
H        3.8596192044   -4.1661063693    1.6776435714
H        2.2204406158   -3.1190955966    0.1345241672
H        3.9286562264   -3.4729776962    4.0635900559
H        0.6485432127   -1.4047677805    0.9660415231
H        2.3709565773   -1.7591459734    4.9048437371
H        0.9269237749   -4.3456464769    5.1790517755
H        0.7418982401   -6.1589154799    3.5125118921
H       -2.6014710586   -2.5122715279    3.5397490701
H        0.2616586235    0.3876800378    2.8028295416
H       -0.9098232152    0.4111745049    4.8588076593
29   

C        3.2152743991   -3.2061548567    1.8147571179
C        2.4538253319   -2.3918095651    0.9729942136
C        3.0629440070   -3.1065722414    3.1997097563
C        1.5313385569   -1.4898784386    1.5150425883
C        2.1398627767   -2.2062616986    3.7427585276
C       -0.0128777645   -4.4295000747    4.7465572573
C       -0.0996387973   -5.5369542101    3.9018280733
C       -1.7680663340   -3.3539213942    3.4911624247
C        1.3408195966   -1.4058988107    2.9079785998
C       -0.8396148611   -3.3194781631    4.5402418762
C       -1.0113808396   -5.5630109031    2.8403610300
C       -1.8583603407   -4.4581985228    2.6341127771
C        0.3671113208   -0.4334560458    3.4188229611
C       -0.4028945394   -0.4581983779    4.5205270722
O       -1.9940799236   -1.6288571247    6.3116074438
O        0.3919540550   -2.0201204024    6.5864523270
S       -0.7135030351   -1.8594197151    5.6263059771
Cl      -1.0803459023   -6.9665848151    1.7972329195
Cl      -3.0191031538   -4.4383707322    1.3242399148
H        3.9303810982   -3.9049374156    1.3950375863
H        2.5784603055   -2.4588850526   -0.1019719506
H        3.6688030097   -3.7195498201    3.8574497674
H        0.9504338308   -0.8669188402    0.8439646211
H        2.0780311634   -2.1215503757    4.8200236799
H        0.7024060400   -4.4298528051    5.5654153812
H        0.5481055662   -6.3895981743    4.0674070765
H       -2.4308142631   -2.5096234388    3.3282314146
H        0.2045967656    0.4252173853    2.7751804689
H       -0.9890024900    0.4124503187    4.7731547649
29   

C        3.4622371437   -3.0063487649    1.7370316533
C        2.7926091485   -2.0835558075    0.9314764015
C        3.1265349391   -3.1170585929    3.0876337196
C        1.7791146221   -1.2848498101    1.4726140760
C        2.1130227675   -2.3191322621    3.6299077774
C       -0.0949094623   -4.4990663502    4.8125979506
C       -0.2639788988   -5.6467752233    4.0363448793
C       -1.8966241916   -3.4404267265    3.6096015239
C        1.4007154955   -1.4117926201    2.8253416686
C       -0.9042618389   -3.3778008278    4.5972514350
C       -1.2427423120   -5.7030274451    3.0372942009
C       -2.0711487339   -4.5859266166    2.8227847014
C        0.3485800079   -0.5186111927    3.3172241204
C       -0.4185660792   -0.5318434065    4.4236353826
O       -1.9395950813   -1.5882262937    6.3380161322
O        0.4469445742   -2.0149471713    6.5273051598
S       -0.6953316894   -1.8741997864    5.6083004172
Cl      -1.4190888339   -7.1597507181    2.0833849165
Cl      -3.3157368648   -4.6032557515    1.5921083145
H        4.2486432474   -3.6250144069    1.3190665012
H        3.0601258377   -1.9848585498   -0.1146084418
H        3.6623719125   -3.8130486224    3.7231687509
H        1.2775243157   -0.5740467332    0.8252834343
H        1.9269873975   -2.4020056092    4.6895567431
H        0.6659421182   -4.4803796283    5.5891323549
H        0.3684329340   -6.5095133072    4.2092624246
H       -2.5487176424   -2.5882650820    3.4438321853
H        0.1414435235    0.3220578006    2.6627967343
H       -1.0362862564    0.3282727075    4.6339387600
29   

C        2.4745373147   -3.0686808956    0.1959612364
C        3.2868994337   -2.1549011867    0.8681376176
C        1.1476030241   -3.2353155259    0.5942058746
C        2.7752897848   -1.4186723338    1.9424313075
C        0.6346092799   -2.4990795713    1.6679575773
C       -0.3627464173   -3.5506690429    5.8167230147
C        0.0842824984   -4.8345483031    6.1366649290
C       -1.3058100601   -4.4106214530    3.7711303141
C        1.4434006004   -1.5927882359    2.3768946470
C       -1.0497658521   -3.3229102842    4.6196901836
C       -0.1502633855   -5.9150946324    5.2778804521
C       -0.8574925817   -5.7003715747    4.0809310525
C        1.0039482807   -0.7582949509    3.4965637351
C       -0.1472019334   -0.6230432418    4.1848405518
O       -2.3128179523   -1.6418847186    2.8829073861
O       -2.5229877942   -1.1547750334    5.2596755625
S       -1.6400903052   -1.6493531096    4.1924737836
Cl       0.4326618485   -7.5068318328    5.7137309123
Cl      -1.1887321919   -7.0155205404    2.9742581964
H        2.8683271178   -3.6394898265   -0.6377043823
H        4.3153407202   -2.0141916418    0.5550287215
H        0.5068125294   -3.9303307819    0.0630633740
H        3.4318134589   -0.7137318482    2.4401548753
H       -0.4046249554   -2.6436322846    1.9028034761
H       -0.1775625816   -2.7291470984    6.5033600516
H        0.6190050100   -5.0023136503    7.0641679204
H       -1.8671943024   -4.2609060029    2.8528430242
H        1.7612161528   -0.0578279280    3.8333994055
H       -0.2241508768    0.1912366866    4.8895533094
