29

C      1.28578    0.48536    6.48263
C      0.85407   -0.42204    5.50840
C      1.19500    1.86186    6.23994
C      5.12855    2.20807    2.77962
C      0.33488    0.04223    4.29785
C      0.71188    2.33346    5.01920
C      1.69933    4.58809    2.02271
C      2.95616    5.17461    2.11720
C      6.33282    2.82160    2.84687
C      2.64653    2.40358    2.47932
C      3.92806    2.97341    2.54156
C      0.30097    1.41835    4.03715
C      1.53154    3.20794    2.24304
C      4.06686    4.36655    2.37745
C      6.46873    4.26792    2.68143
N     -0.30707    1.83219    2.80367
N      0.20732    2.68806    2.04654
O      7.50433    4.89501    2.73054
O      5.28737    4.97693    2.44646
H      1.67215    0.12415    7.43172
H      0.90297   -1.49081    5.69911
H      1.50470    2.57041    7.00355
H      5.04796    1.13093    2.90806
H     -0.03617   -0.64654    3.54377
H      0.64621    3.40021    4.82978
H      0.82508    5.18826    1.78756
H      3.09855    6.24108    1.97403
H      7.25696    2.28363    3.02628
H      2.53551    1.33255    2.61439
