31

C     -8.29529    3.77837    4.60154
C     -2.63793   -2.77806    1.42864
C     -2.72878   -3.76524    2.40550
C     -4.19257   -2.36335    3.79150
C     -4.23108    0.48491    1.48969
C     -8.39991    3.68839    3.18800
C     -4.10284   -1.35502    2.81501
C     -4.67756   -0.02805    2.70347
C     -3.32737   -1.58063    1.64794
C     -3.50040   -3.54557    3.56568
C     -7.67329    2.92474    2.30446
C     -9.13830    4.12700    1.21313
C     -5.47333    0.61332    3.74171
C     -9.83017    4.60117   -0.01348
N     -8.23330    3.88475    5.76129
N     -9.32834    4.44505    2.44709
N     -6.34580    1.56006    3.65034
N     -3.42342   -0.43935    0.86641
N     -6.61217    2.05668    2.39247
O     -8.12004    3.18489    1.04449
Br    -3.59789   -4.94835    4.87179
H     -2.04819   -2.94345    0.53100
H     -2.20847   -4.70819    2.27697
H     -4.78681   -2.23199    4.68972
H     -4.36588    1.46838    1.06086
H     -5.33767    0.24944    4.75839
H     -9.12645    5.07930   -0.70276
H    -10.30729    3.76933   -0.54209
H    -10.59324    5.32420    0.27618
H     -2.96352   -0.29776   -0.02227
H     -6.50052    1.42713    1.59416
