36

C      9.11454   -1.56383    2.53624
C      7.20473   -2.52219   -0.52083
C      8.28057   -2.26285    0.32940
C      5.89249   -2.36679   -0.07310
C      6.01294   -6.68544    6.19099
C      7.81501   -5.75687    4.84676
C      6.85517   -7.71210    6.61810
C      8.65941   -6.78877    5.25896
C      6.70491   -1.67283    2.09990
C      8.02120   -1.82743    1.64073
C      4.45152   -3.15872    3.75015
C      5.62983   -1.97288    1.25032
C      6.49376   -5.71891    5.30262
C      8.16134   -7.74765    6.13624
C      4.21325   -3.06409    5.15795
C      5.34986   -4.21983    3.63703
C      3.82712   -2.29407    2.74362
C      3.32835   -2.08962    5.87246
N      9.99879   -1.37143    3.27116
N      4.92767   -3.95731    5.83589
N      4.29105   -1.81214    1.64767
N      5.62582   -4.66588    4.89389
F      8.97964   -8.74800    6.54356
Cl     5.92769   -5.02638    2.23420
H      7.39018   -2.84427   -1.54169
H      9.30470   -2.38139   -0.00937
H      5.05158   -2.56395   -0.73138
H      4.99006   -6.62158    6.54638
H      8.18867   -4.97987    4.18822
H      6.51290   -8.47703    7.30774
H      9.69033   -6.84337    4.92455
H      6.52340   -1.33044    3.11287
H      2.80300   -1.99492    2.98458
H      2.29065   -2.17116    5.53078
H      3.35700   -2.28750    6.94582
H      3.65175   -1.05793    5.69971
