20

C     -2.12113    3.21872    1.40502
C     -0.76555    1.21436    1.14656
C     -1.81979    2.04156    0.71898
C      0.00450    1.72667    2.20805
C     -0.37681    2.92443    2.84054
C     -0.10339   -1.35290    1.40406
C     -0.99458   -2.16733    0.44285
C     -0.43962   -0.12303    0.50314
N     -1.42243    3.63661    2.46115
N     -1.59356   -0.89337   -0.02725
Cl    -2.75674    1.72658   -0.72778
Cl     1.47035    0.91739    2.70828
Cl     0.53370    3.55290    4.19582
H     -2.95021    3.84322    1.08204
H     -0.53462   -1.26291    2.40235
H      0.94512   -1.63549    1.47965
H     -0.40293   -2.69375   -0.31937
H     -1.71544   -2.86252    0.88410
H      0.36436    0.03687   -0.23336
H     -1.74927   -0.81429   -1.02860
