34

C     -0.44578    0.70788   -1.55049
C     -0.65788    0.05735   -0.32750
C     -4.70260   -1.66102   -8.00856
C     -4.43851   -1.20234   -6.71602
C     -3.68536   -2.23900   -8.77278
C     -0.95392    0.15574   -2.72141
C     -1.37918   -1.13162   -0.29317
C     -2.13889   -1.93038   -6.95471
C     -3.15562   -1.35401   -6.17860
C     -2.38417   -2.36880   -8.26122
C     -1.69165   -1.03776   -2.69797
C     -1.91081   -1.68881   -1.47003
C     -2.87801   -0.79234   -4.81314
C     -2.24124   -3.05828   -3.97614
C     -3.29128   -3.57255   -2.99406
C     -1.27405   -2.94346   -9.11110
N     -2.15493   -1.59590   -3.93066
O     -3.23820    0.34574   -4.52840
S     -2.82139   -3.20490   -1.26688
H      0.11638    1.63644   -1.59089
H     -0.26180    0.47379    0.59471
H     -5.70183   -1.56169   -8.42460
H     -5.21146   -0.72302   -6.12265
H     -3.90038   -2.58660   -9.78121
H     -0.79678    0.65113   -3.67317
H     -1.54516   -1.63877    0.65438
H     -1.13798   -2.02165   -6.53781
H     -1.25943   -3.48067   -3.74082
H     -2.51418   -3.36976   -4.98204
H     -4.26346   -3.12740   -3.22146
H     -3.37963   -4.66052   -3.06074
H     -0.91011   -2.20154   -9.83164
H     -0.42207   -3.25581   -8.50065
H     -1.61828   -3.81116   -9.68277
