40

C     -0.55429    4.58957    2.09547
C     -7.19751    7.04316    2.06603
C     -5.41423    8.45637    2.83976
C     -6.28636    6.01224    1.83451
C     -4.48698    7.44018    2.61644
C     -6.78261    8.28253    2.57397
C     -4.92630    6.20882    2.11017
C     -2.32613    2.94974    1.35996
C     -2.42635    0.87859    0.66281
C     -1.92976    4.26844    1.85117
C     -2.02173   -0.49417    0.23882
C     -0.96547   -0.50667   -0.88556
C      0.45810   -0.14786   -0.43445
C      0.65343    1.26740    0.12968
C     -0.12928    1.56159    1.41422
C     -7.77613    9.38560    2.85537
N      0.57263    4.83311    2.27845
N     -3.58329    2.67547    1.00944
N     -3.64263    1.37838    0.56806
N     -2.75660    5.27431    2.07680
N     -1.55440    1.81888    1.16288
N     -4.04268    5.14451    1.85927
H     -8.24937    6.87756    1.84450
H     -5.06422    9.40987    3.22961
H     -6.62659    5.05864    1.43725
H     -3.43305    7.58779    2.82361
H     -1.64780   -1.06214    1.10155
H     -2.93638   -0.98865   -0.09661
H     -0.94485   -1.51365   -1.31706
H     -1.28939    0.16942   -1.68602
H      0.78294   -0.87483    0.32300
H      1.13507   -0.27523   -1.28706
H      1.71558    1.40703    0.35970
H      0.39527    2.02388   -0.62077
H     -0.06012    0.71736    2.10942
H      0.28868    2.42691    1.91841
H     -8.10304    9.36396    3.90235
H     -7.34053   10.37234    2.67031
H     -8.66917    9.28821    2.23102
H     -4.39226    4.24822    1.48008
