25

C      1.63684   -2.17378    0.41241
C      0.54746   -1.61762    1.07431
C      2.92791   -1.65597    0.58575
C      2.03818    0.00612    2.10931
C      0.74967   -0.51710    1.93107
C      3.12468   -0.56346    1.43703
C     -5.67908   -1.14853    2.65216
C     -3.82911   -0.03612    3.20214
C     -0.36277    0.10548    2.65147
C     -6.30560   -0.10859    3.61908
N     -4.30171   -1.01428    2.49684
N     -1.56741   -0.32742    2.53055
N     -2.52335    0.33063    3.24976
O     -6.37546   -1.98289    2.10674
O      4.35947   -0.00317    1.65575
S     -4.94408    0.94385    4.21389
H      1.49087   -3.02248   -0.25022
H     -0.45372   -2.01408    0.94403
H      3.77177   -2.10124    0.06125
H      2.21655    0.85436    2.76533
H     -0.11864    0.95969    3.29977
H     -7.04875    0.48606    3.08567
H     -6.78612   -0.62540    4.45120
H     -2.26174    1.11969    3.84174
H      5.02384   -0.48383    1.13694
