35

C     -1.31189   -3.44420    0.37256
C     -0.29238   -2.68160    2.71680
C     -0.07720    0.50320    2.24445
C      0.46394   -2.79060    3.93837
C     -0.19424    0.79408    0.83898
C      1.27014    0.58174    2.48124
C     -1.44118   -2.03241    2.20089
C      0.28960   -3.64206    1.88020
C      0.22222   -2.18198    5.28614
C     -1.42279    0.85424   -0.01427
C      2.14007    0.40431    3.68075
C     -3.42230   -0.63656    2.46569
C     -1.18196    0.19064    3.21711
N     -1.96383   -2.47838    1.04359
N     -0.15901   -4.04318    0.69310
N      1.43085   -3.66954    3.80526
N      0.98034    1.02279    0.29475
N     -2.03932   -0.95827    2.82595
O      1.91533    0.89163    1.33455
O      1.35513   -4.20013    2.49023
H     -1.77357   -3.76307   -0.55979
H     -0.84712   -2.19319    5.51581
H      0.75734   -2.75612    6.04514
H      0.56704   -1.14804    5.33942
H     -2.15532    1.55270    0.40432
H     -1.15572    1.19089   -1.01814
H     -1.89313   -0.13070   -0.08528
H      2.48891   -0.63046    3.76515
H      3.01843    1.04936    3.59805
H      1.60663    0.66913    4.59576
H     -3.86959   -0.07445    3.29056
H     -3.98256   -1.56083    2.32745
H     -3.50571   -0.04849    1.54576
H     -0.76502    0.03711    4.21435
H     -1.85829    1.04637    3.29964
