27

C     -1.83879    1.33592   -1.70678
C     -1.24895    0.43159   -0.81184
C     -2.92577    0.93484   -2.49796
C     -1.71445   -0.88436   -0.68543
C     -3.39538   -0.37030   -2.37886
C     -2.79193   -1.26161   -1.48533
C     -7.00674   -0.88324   -3.08201
C     -8.51200   -1.98634   -4.37202
C     -4.30081   -2.53654   -2.60585
C     -9.38341   -0.78902   -3.92476
C     -4.56835   -1.07092   -3.01956
N     -7.11484   -1.73122   -4.03810
N     -5.82939   -0.55830   -2.46616
O     -3.36856   -2.49951   -1.48488
S     -8.51825   -0.11977   -2.45048
H     -1.45056    2.34698   -1.78876
H     -0.40701    0.75388   -0.20449
H     -3.38902    1.63080   -3.19407
H     -1.25787   -1.58853    0.00332
H     -8.84206   -2.90323   -3.86362
H     -8.61684   -2.15224   -5.44899
H     -5.20218   -3.05456   -2.28301
H     -3.82241   -3.09016   -3.41988
H     -9.42754   -0.01144   -4.69176
H    -10.39777   -1.08530   -3.65103
H     -4.59447   -0.98163   -4.11008
H     -5.78510    0.32937   -1.98226
