36

C      5.06709   -4.19921   -4.68381
C      4.19844   -1.98170   -5.30555
C      4.05763   -2.71838   -2.99250
C      3.58487   -0.78255   -4.94780
C      3.44542   -1.51561   -2.65160
C      4.49140    2.26435   -0.65720
C      4.26426    2.00682   -1.99037
C      2.62003    1.21236   -0.74881
C      4.43470   -2.95988   -4.32578
C      3.19481   -0.53801   -3.62487
C      0.20600    1.30859   -5.36907
C      0.09875    2.52083   -4.39864
C      0.32066    0.06408   -4.46149
C      0.23207    1.93602   -2.96957
C      0.95086    0.58229   -3.15355
C      2.48492    0.75786   -3.26802
N      5.57820   -5.20506   -4.97622
N      3.45765    1.76601    0.10932
N      3.05291    1.33883   -2.04648
H      4.49828   -2.16476   -6.33278
H      4.25282   -3.47136   -2.23511
H      3.40726   -0.02707   -5.70956
H      3.17701   -1.32845   -1.61580
H      5.33053    2.78160   -0.21001
H      4.83553    2.21980   -2.88308
H      1.68569    0.73619   -0.48731
H     -0.65329    1.23647   -6.04123
H      1.09088    1.40244   -6.00790
H      0.89372    3.24698   -4.59493
H     -0.84642    3.05742   -4.51723
H     -0.67898   -0.31558   -4.22355
H      0.87215   -0.75887   -4.92164
H      0.74965    2.61106   -2.28429
H     -0.75995    1.74515   -2.54607
H      0.74460   -0.11087   -2.33187
H      2.68259    1.47969   -4.06642
