20   
Generated by ForceBalance from scan.xyz: Frame 1 of 24
C       -1.5523654474    0.7736288546    0.6846783497
C        2.2105777608    0.8218061447    0.3370181202
C        0.1092564976   -2.8090720635   -0.1709168154
C       -3.0672752069    1.1262141609    0.9177454268
N       -1.2793496978    0.2585370594   -0.5535683713
O       -0.7379014483    0.9159783408    1.5734307931
O        0.0682626159   -0.7734807591   -2.4829958155
O        1.3008202926    0.7900498519   -0.7968411349
O        0.6405888461   -1.4710886333   -0.0098806236
P        0.2420250330   -0.3494688771   -1.0812354441
Cl      -3.9625402634   -0.4430816748    1.0233531537
Cl      -3.2643477809    2.0409271971    2.4212669216
Cl      -3.7108524213    2.0889461416   -0.4701879994
H        2.7670162612    1.7525636477    0.2299316135
H        2.8870367005   -0.0331013020    0.2885545506
H        1.6435993034    0.8160401104    1.2672469012
H        0.6245261121   -3.4256237005    0.5651252795
H        0.3035881464   -3.1735662018   -1.1813115939
H       -0.9656824970   -2.8105190398    0.0321534137
H       -2.0102716825    0.2448857216   -1.2590469226
20   
Generated by ForceBalance from scan.xyz: Frame 2 of 24
C       -1.5807833635    0.8262084740    0.7181539861
C        2.1811473756    0.7431798248    0.3429454900
C        0.2689372395   -2.9177304005   -0.2017971245
C       -3.0768374300    1.2549555218    0.9439614534
N       -1.3382945915    0.2510707741   -0.5000913895
O       -0.7525584553    0.9718111181    1.5933963397
O       -0.0174150087   -0.8701593227   -2.4062995047
O        1.2379698503    0.7213580682   -0.7621044326
O        0.5364200308   -1.5205495057    0.0780671968
P        0.1614877439   -0.4110372558   -1.0157149653
Cl      -4.0476845781   -0.2635062537    1.0982889350
Cl      -3.2249824891    2.2240804263    2.4189653932
Cl      -3.6757700870    2.2056629977   -0.4724210469
H        2.7603829269    1.6559962431    0.2059897568
H        2.8326420145   -0.1308349809    0.2900001299
H        1.6414055473    0.7678007320    1.2890907721
H        0.8308433502   -3.4822201861    0.5421165260
H        0.5975989193   -3.1736421493   -1.2102402029
H       -0.8000582189   -3.1199350231   -0.0928659120
H       -2.0775980308    0.2248166785   -1.1964201052
20   
Generated by ForceBalance from scan.xyz: Frame 3 of 24
C       -1.6126601975    0.8771325367    0.7414171257
C        2.1333675027    0.6756821713    0.3442118740
C        0.4065346633   -2.9633855960   -0.2207847573
C       -3.0917304129    1.3636095937    0.9642108029
N       -1.3981761550    0.2672380998   -0.4642141731
O       -0.7738586656    1.0165108210    1.6077221877
O       -0.1155300285   -0.9281822472   -2.3611065665
O        1.1823182843    0.6607464521   -0.7535416926
O        0.4067532716   -1.5569714833    0.1335524689
P        0.0749786975   -0.4511663617   -0.9782813970
Cl      -4.1194736084   -0.1123614542    1.1457724687
Cl      -3.1984678797    2.3631556668    2.4227770075
Cl      -3.6568729435    2.3134394877   -0.4674541757
H        2.7361665809    1.5700305980    0.1881151579
H        2.7626822963   -0.2153705145    0.3019944452
H        1.6023454795    0.7300199178    1.2939836221
H        0.9102279066   -3.4742292006    0.5997253007
H        0.9390654760   -3.1241010960   -1.1594280823
H       -0.6211531485   -3.3231194221   -0.3125111925
H       -2.1473578842    0.2362226707   -1.1497709460
20   
Generated by ForceBalance from scan.xyz: Frame 4 of 24
C       -0.9249834887    0.2165723602    1.2621638175
C        1.3330949512    2.1550208434   -0.8861666835
C        1.7404172151   -2.7588399897   -0.9999094378
C       -2.3880859944    0.5888616567    1.7110529717
N       -0.8123233511   -0.0486824160   -0.0823297704
O       -0.0088401770    0.2285742004    2.0517792045
O        0.2910649187   -0.4965908042   -2.3799285775
O        1.6361028392    0.7913771813   -0.5077138243
O        1.2852352732   -1.6221361859   -0.2220612221
P        0.6338841311   -0.3669124719   -0.9470758664
Cl      -3.5662540546   -0.6364205347    1.0910312036
Cl      -2.4903732097    0.6759479875    3.4751815129
Cl      -2.7702640903    2.2033658985    0.9854341079
H        2.1693239368    2.7555966533   -0.5302517902
H        0.4095048227    2.4846789582   -0.4015162820
H        1.2422642910    2.2365877047   -1.9720577898
H        1.8201384022   -3.5850991112   -0.2940237219
H        2.7186833613   -2.5373696625   -1.4325635105
H        1.0276585907   -2.9965202467   -1.7916253559
H       -1.6556735509   -0.0899953702   -0.6471168159
20   
Generated by ForceBalance from scan.xyz: Frame 5 of 24
C       -0.9742822371    0.2234225882    1.2733743581
C        1.3765369274    2.0783042175   -0.9254002579
C        1.8226109289   -2.7044380858   -1.0221491226
C       -2.4227953065    0.6397531380    1.7324091584
N       -0.8799822501   -0.0504465175   -0.0715911816
O       -0.0529242512    0.2103919432    2.0561229592
O        0.2071422779   -0.4915042226   -2.3864583412
O        1.5934433782    0.7119940589   -0.5002305736
O        1.1275886400   -1.7007308293   -0.2386988645
P        0.5456040246   -0.4037381004   -0.9497443261
Cl      -3.6368010959   -0.5631157457    1.1395313129
Cl      -2.5042585337    0.7511914270    3.4963571179
Cl      -2.7722001320    2.2547624316    0.9908845675
H        2.2301605907    2.6451603186   -0.5554864580
H        0.4551357766    2.4687557842   -0.4830385283
H        1.3264071806    2.1330678615   -2.0154917543
H        1.8355952497   -3.6025991693   -0.4053604143
H        2.8441520958   -2.3714259995   -1.2211199180
H        1.2956712628   -2.8899257793   -1.9599891358
H       -1.7305291513   -0.0749559006   -0.6264926185
20   
Generated by ForceBalance from scan.xyz: Frame 6 of 24
C       -0.9523401933    0.1772548160    1.3734907624
C        1.3751893147    2.0122115342   -0.9446974169
C        1.8806940420   -2.6121849660   -1.0536025885
C       -2.3709100731    0.5911165487    1.9196097397
N       -0.9369583884   -0.0689511334    0.0190279402
O        0.0105353849    0.1405226931    2.1032489069
O        0.0256631530   -0.4641707912   -2.3630714430
O        1.5392092922    0.6379727696   -0.5220403761
O        0.9884905443   -1.7659353260   -0.2845336256
P        0.4285805581   -0.4306369717   -0.9411573127
Cl      -3.6152454782   -0.6096621282    1.3893084344
Cl      -2.3483972907    0.6885779026    3.6861230064
Cl      -2.7651774664    2.2112219438    1.2132000645
H        2.2714209871    2.5362187713   -0.6142019800
H        0.4945934521    2.4493769996   -0.4645463428
H        1.2803580075    2.0673167355   -2.0317596660
H        1.9674926592   -3.5395804223   -0.4884508290
H        2.8601052372   -2.1352022281   -1.1417654082
H        1.4594239688   -2.8060985862   -2.0423220760
H       -1.8171460492   -0.0690743522   -0.4882438679
20   
Generated by ForceBalance from scan.xyz: Frame 7 of 24
C       -0.9657328217    0.1262967801    1.4188964403
C        1.4087922500    1.9401277365   -1.0021200218
C        1.8800999879   -2.5192783126   -1.0561593971
C       -2.3468392719    0.5603164735    2.0391081618
N       -1.0130844264   -0.0588915739    0.0545502693
O        0.0229453264    0.0212093295    2.1059757983
O       -0.1538658858   -0.3871588316   -2.3760858264
O        1.4788234230    0.5633562990   -0.5609821993
O        0.8116281289   -1.8157689719   -0.3730647949
P        0.2978392998   -0.4340963605   -0.9691131568
Cl      -3.6422147406   -0.5924202556    1.5255162182
Cl      -2.2451929852    0.5989661328    3.8051117834
Cl      -2.7295614042    2.2118068802    1.4029413145
H        2.3483826167    2.4004571154   -0.6979511460
H        0.5736051293    2.4476283078   -0.5101729098
H        1.2933782542    1.9865230019   -2.0873344590
H        2.0005297879   -3.4620367826   -0.5237904015
H        2.8037208510   -1.9378326006   -1.0006261287
H        1.6036215580   -2.7041930398   -2.0967948684
H       -1.9094598285    0.0060163826   -0.4191166508
20   
Generated by ForceBalance from scan.xyz: Frame 8 of 24
C       -0.9828467499    0.0742724632    1.3925609150
C        1.4424987928    1.8969350080   -1.0875148436
C        1.9181022838   -2.4293290390   -0.9687998046
C       -2.3322018392    0.5359807557    2.0609505669
N       -1.0587357060   -0.0338218082    0.0213936789
O        0.0105231239   -0.1135155204    2.0550431629
O       -0.2597027993   -0.3157138034   -2.4314888273
O        1.4476243431    0.5216258453   -0.6367173342
O        0.6925348765   -1.8322796065   -0.4778481751
P        0.2193325104   -0.4229661754   -1.0373862081
Cl      -3.6909544983   -0.5188219110    1.5039455402
Cl      -2.2019849529    0.4649261702    3.8242135173
Cl      -2.6419608932    2.2393204594    1.5297547884
H        2.4047641029    2.3133554173   -0.7907864187
H        0.6350730490    2.4477286662   -0.5958916726
H        1.3235770044    1.9404559162   -2.1723146441
H        1.9858650020   -3.4040837730   -0.4870578287
H        2.7709655568   -1.8089064458   -0.6851671293
H        1.8723994624   -2.5500431182   -2.0541425672
H       -1.9558348741    0.1051695207   -0.4344275671
20   
Generated by ForceBalance from scan.xyz: Frame 9 of 24
C       -0.9712597580    0.0185759595    1.3479798271
C        1.4355462061    1.8625969400   -1.1397933613
C        1.9191239076   -2.3826381595   -0.8712968680
C       -2.2885680893    0.4763341891    2.0791659082
N       -1.0883410001   -0.0215225123   -0.0230802083
O        0.0369865618   -0.2256183658    1.9696669682
O       -0.3715217624   -0.2634540662   -2.4982952063
O        1.4179261943    0.4724620846   -0.7372816127
O        0.5928812482   -1.8606403821   -0.6139401432
P        0.1500742691   -0.4245455094   -1.1256807558
Cl      -3.6812261771   -0.5340108996    1.5246592213
Cl      -2.1032246177    0.3318050441    3.8333331685
Cl      -2.5863826289    2.2047355621    1.6279969324
H        2.4188665218    2.2424201507   -0.8637415169
H        0.6612773913    2.4164044306   -0.6006593298
H        1.2802502036    1.9471944085   -2.2174822771
H        1.9236559752   -3.3900568253   -0.4565316185
H        2.6625680246   -1.7610963834   -0.3696413901
H        2.1111136572   -2.4218264151   -1.9466966911
H       -1.9915491780    0.1667445194   -0.4479002759
20   
Generated by ForceBalance from scan.xyz: Frame 10 of 24
C       -0.9492117094   -0.0343925415    1.2934593505
C        1.4170608099    1.8536550923   -1.1972093304
C        1.9077040087   -2.3303797241   -0.7367141339
C       -2.2191697643    0.4558206851    2.0837420880
N       -1.1001820445   -0.0035423585   -0.0728488977
O        0.0611879057   -0.3614636210    1.8745138579
O       -0.4536614789   -0.2202340798   -2.5647251711
O        1.3949844822    0.4527650160   -0.8333351970
O        0.5344332463   -1.8705538623   -0.7443995937
P        0.1054827459   -0.4178146955   -1.2127101789
Cl      -3.6803861721   -0.4465972675    1.5204292450
Cl      -1.9963050927    0.2121043547    3.8228609568
Cl      -2.4313256080    2.2187808669    1.7276536670
H        2.4136392320    2.2139378231   -0.9435584057
H        0.6674835262    2.4004398749   -0.6175651591
H        1.2281570725    1.9701375441   -2.2664886553
H        1.8637640769   -3.3740834906   -0.4271723493
H        2.4858459787   -1.7434341749   -0.0219886696
H        2.3421105039   -2.2558103873   -1.7365655739
H       -2.0023025414    0.2439285092   -0.4684030642
20   
Generated by ForceBalance from scan.xyz: Frame 11 of 24
C       -1.2130940598    0.5301020966    1.1834148343
C        1.8747088649    0.6638746873   -1.1629732930
C        1.4070390443   -2.4629180675    1.6266111289
C       -2.4580526872    1.4892275562    1.2547995681
N       -1.0927533996   -0.1418560021   -0.0073455853
O       -0.4266619370    0.4591160660    2.1031254869
O       -0.0603294324   -1.7278253585   -1.7625151334
O        1.5318096462   -0.3496825270   -0.1880287909
O        0.2340647398   -2.2104687927    0.8133274539
P        0.1943792166   -1.2029365707   -0.4075332891
Cl      -3.9534918659    0.6120869283    0.7435494761
Cl      -2.6630463371    2.1144704544    2.8985583072
Cl      -2.1435168847    2.8534469628    0.1065460900
H        2.8453472580    1.0553906670   -0.8599838469
H        1.1305046010    1.4655774718   -1.1446342990
H        1.9341243081    0.2242462945   -2.1608913902
H        2.2349147486   -2.8082438539    1.0039830371
H        1.1113554581   -3.2449606883    2.3252659586
H        1.6807133652   -1.5532894698    2.1623573428
H       -1.8310108094   -0.0670209232   -0.7007370618
20   
Generated by ForceBalance from scan.xyz: Frame 12 of 24
C       -1.1639669340    0.4533707331    1.1746979186
C        1.8450306714    0.6502421458   -1.1896957737
C        1.3575166180   -2.4084691992    1.6688024588
C       -2.3771054552    1.4495951199    1.2747895679
N       -1.0650951382   -0.1920502133   -0.0294646018
O       -0.3781176732    0.3352255490    2.0918356491
O       -0.1007592855   -1.7572362277   -1.8320852662
O        1.5487477711   -0.4244012664   -0.2664389473
O        0.2791825984   -2.3222935503    0.6995191504
P        0.2028786194   -1.2664975813   -0.4753547301
Cl      -3.9015903233    0.6306518810    0.7538609292
Cl      -2.5531203989    2.0456356924    2.9325182571
Cl      -2.0250409755    2.8278616094    0.1542457767
H        2.8258213411    1.0293841152   -0.9043117501
H        1.0983571776    1.4436795190   -1.0909559229
H        1.8654044780    0.2730892364   -2.2144881460
H        2.3019119330   -2.6070517904    1.1592745099
H        1.0938940247   -3.2441858144    2.3163759279
H        1.4114233286   -1.4812743910    2.2393646033
H       -1.8066718319   -0.0859023555   -0.7154010328
20   
Generated by ForceBalance from scan.xyz: Frame 13 of 24
C       -1.1138002082    0.4385063735    1.1895834930
C        1.8123261781    0.6986336626   -1.1759008702
C        1.3178116739   -2.3830081865    1.6948883501
C       -2.3146803601    1.4498358320    1.2868023462
N       -1.0401508192   -0.2313126808   -0.0006755950
O       -0.3157788075    0.3351848076    2.0989462428
O       -0.1279584488   -1.7286616645   -1.8723436660
O        1.5713243723   -0.4402069314   -0.3154791875
O        0.3724992475   -2.4095082118    0.5887574353
P        0.2262546588   -1.2846864267   -0.5120822439
Cl      -3.8524216730    0.6520914236    0.7727712704
Cl      -2.4796401825    2.0566761079    2.9418618878
Cl      -1.9424225443    2.8162630868    0.1587767754
H        2.7968802593    1.0774130611   -0.9035282347
H        1.0570452659    1.4696796625   -0.9979139061
H        1.7995180732    0.3886006854   -2.2231037984
H        2.3351855508   -2.4391570942    1.3043798281
H        1.0887114610   -3.2691736688    2.2861854381
H        1.1788488412   -1.4775618069    2.2839716261
H       -1.7945882285   -0.1282416644   -0.6734341745
20   
Generated by ForceBalance from scan.xyz: Frame 14 of 24
C       -1.0691718172    0.4388446075    1.2217595289
C        1.7225704986    0.6555827483   -1.1868379216
C        1.1431282083   -2.4102443287    1.8090016977
C       -2.2508079395    1.4729967133    1.3230166642
N       -1.0700317140   -0.3053245190    0.0743567241
O       -0.2199717350    0.3855955739    2.0879469443
O       -0.2243883362   -1.7940654175   -1.8370848565
O        1.5253774256   -0.5005892603   -0.3384271915
O        0.3859733587   -2.5050276977    0.5712094074
P        0.1814529623   -1.3536279978   -0.4907429750
Cl      -3.8209410444    0.6984186474    0.8752689447
Cl      -2.3567082431    2.1301163186    2.9642011795
Cl      -1.8794042842    2.7964915683    0.1452473864
H        2.7186552937    1.0310289402   -0.9548719930
H        0.9761188623    1.4216456841   -0.9580538126
H        1.6601085410    0.3653858598   -2.2379288720
H        2.0543689967   -1.8334664341    1.6499844219
H        1.3816720240   -3.4387037547    2.0794097953
H        0.5303287379   -1.9368300748    2.5749782771
H       -1.8595046836   -0.2289513554   -0.5608672197
20   
Generated by ForceBalance from scan.xyz: Frame 15 of 24
C       -0.9896077957    0.4508426006    1.2299765471
C        1.6849680753    0.7126845556   -1.1646068360
C        1.0020161814   -2.4073927526    1.8356898559
C       -2.2101242191    1.4358313849    1.3652426022
N       -1.0462117321   -0.3642125050    0.1312810242
O       -0.0748761377    0.4906618204    2.0267755860
O       -0.2271124124   -1.7708426172   -1.8627945717
O        1.5371329604   -0.4878846149   -0.3694035039
O        0.4743915169   -2.5527870809    0.4900455039
P        0.2087522830   -1.3619837450   -0.5162827187
Cl      -3.7706453582    0.5648697717    1.0937890519
Cl      -2.2197508853    2.1886985885    2.9682252319
Cl      -1.9988420784    2.6975653783    0.0854409237
H        2.6816481628    1.0947797665   -0.9469495095
H        0.9344930692    1.4531942697   -0.8740129854
H        1.5922621546    0.4731146868   -2.2261866672
H        1.7919616585   -1.6568459055    1.8581658711
H        1.3942613988   -3.3888910960    2.1011758454
H        0.1961525575   -2.1221313340    2.5129280881
H       -1.8814881303   -0.3426172785   -0.4474624508
20   
Generated by ForceBalance from scan.xyz: Frame 16 of 24
C       -0.8659177732    0.4829725982    1.1716754977
C        1.7323708831    0.7604558187   -1.2212130690
C        0.8697498243   -2.4064905482    1.8049386608
C       -2.1333062822    1.4018507284    1.3425828197
N       -0.9555240978   -0.3994573972    0.1262131437
O        0.0970642277    0.6204398391    1.8964452071
O       -0.1537181290   -1.7394204150   -1.9334364468
O        1.6173182675   -0.4596750516   -0.4505852883
O        0.6134281804   -2.5602382741    0.3860133645
P        0.3014015764   -1.3505382974   -0.5875911980
Cl      -3.6471837232    0.4159756625    1.2722754109
Cl      -2.0607086377    2.2720835960    2.8830998035
Cl      -2.1158512730    2.5730032457   -0.0360518659
H        2.7346181984    1.1415963944   -1.0292652673
H        0.9907087961    1.4908536112   -0.8862453086
H        1.6035365616    0.5462027884   -2.2844657452
H        1.6196561821   -1.6341051695    1.9784463109
H        1.2300988875   -3.3774077699    2.1434717988
H       -0.0584261786   -2.1507389972    2.3203757863
H       -1.8238365663   -0.4309373484   -0.4016249591
20   
Generated by ForceBalance from scan.xyz: Frame 17 of 24
C       -0.7883427693    0.4926539919    1.2444303977
C        1.7270028216    0.7985862972   -1.2706601934
C        0.7484524598   -2.4301412410    1.8723234514
C       -2.0594808201    1.4017001828    1.4357528603
N       -0.8951646557   -0.4025329104    0.2102211355
O        0.1885633497    0.6403052231    1.9475664358
O       -0.1204133267   -1.7232060613   -1.8750029286
O        1.6611391185   -0.3990081788   -0.4598126164
O        0.7420061473   -2.5164065961    0.4267340479
P        0.3628318505   -1.3217829674   -0.5420610206
Cl      -3.5592034855    0.3917272537    1.4483812620
Cl      -1.9426049834    2.3149811496    2.9479931494
Cl      -2.1113339694    2.5346119412    0.0264628876
H        2.7246170389    1.2084028633   -1.1173294537
H        0.9771471538    1.5223404947   -0.9386280742
H        1.5749615857    0.5486776434   -2.3229940906
H        1.4183318296   -1.6369050768    2.2060025388
H        1.0975022975   -3.4015880102    2.2207451666
H       -0.2649197436   -2.2462555409    2.2370334463
H       -1.7707877839   -0.4368190291   -0.3053840885
20   
Generated by ForceBalance from scan.xyz: Frame 18 of 24
C       -0.7184210300    0.5435437798    1.3403458086
C        1.7449229456    0.8590948772   -1.3136923114
C        0.6666923008   -2.4177345593    1.9796133526
C       -1.9875792762    1.4552586262    1.5274310928
N       -0.8206905496   -0.3490547379    0.3029678292
O        0.2537958557    0.6802813174    2.0517561641
O       -0.0411540212   -1.6931918033   -1.7629882599
O        1.7220050412   -0.2826507927   -0.4238089691
O        0.8957296263   -2.3945095470    0.5511586951
P        0.4521797409   -1.2481516180   -0.4467157132
Cl      -3.4836988654    0.4397355987    1.5612235370
Cl      -1.8634147090    2.3867877486    3.0274007621
Cl      -2.0524073429    2.5712656613    0.1051300124
H        2.7272732746    1.3136403939   -1.1903709242
H        0.9691585337    1.5762642713   -1.0291101973
H        1.6009087321    0.5347956320   -2.3466295221
H        1.2275956951   -1.6190951221    2.4657640344
H        1.0162153603   -3.3938936443    2.3140723305
H       -0.4005655415   -2.3143780572    2.1903729204
H       -1.6908142164   -0.3798421658   -0.2219606626
20   
Generated by ForceBalance from scan.xyz: Frame 19 of 24
C       -0.7198415316    0.5187546844    1.3491575634
C        1.7207971047    0.8804226524   -1.4367263079
C        0.5928475343   -2.4671287819    1.9624162167
C       -1.9996128353    1.4160689206    1.5263973296
N       -0.7947033974   -0.3581254773    0.2956313405
O        0.2382617485    0.6487248736    2.0804094794
O        0.0285978416   -1.7111323271   -1.7432171806
O        1.7358437447   -0.1902349140   -0.4620102832
O        1.0291080594   -2.2936230367    0.5950450582
P        0.5129131735   -1.2146596140   -0.4408293494
Cl      -3.4868321965    0.3867113436    1.5122087713
Cl      -1.9143916947    2.3224940184    3.0441305025
Cl      -2.0460718136    2.5554361727    0.1219112363
H        2.6792130702    1.3885198072   -1.3355936510
H        0.9080884281    1.5795719874   -1.2168447076
H        1.6075047912    0.4734984989   -2.4437796564
H        1.0221396027   -1.6848414114    2.5887786947
H        0.9586701715   -3.4481837173    2.2638175973
H       -0.4980890525   -2.4465426218    2.0218555046
H       -1.6541607873   -0.3933111280   -0.2460431534
20   
Generated by ForceBalance from scan.xyz: Frame 20 of 24
C       -0.6847270710    0.5696905953    1.3961242765
C        1.7284248843    0.9105262936   -1.5301624558
C        0.5323603860   -2.4839038938    1.9397711453
C       -1.9627241765    1.4683898359    1.5799395167
N       -0.7561163186   -0.2914117095    0.3296603797
O        0.2681034683    0.6821657326    2.1370046262
O        0.0604899847   -1.6811799194   -1.6822267849
O        1.7562841536   -0.0848923735   -0.4787539409
O        1.1329908862   -2.1515609360    0.6668655216
P        0.5599077636   -1.1370683114   -0.4038966578
Cl      -3.4497919073    0.4379703066    1.5627723428
Cl      -1.8749007921    2.3664007337    3.1021471774
Cl      -2.0129826668    2.6158164326    0.1820519643
H        2.6740222354    1.4466073654   -1.4563283204
H        0.8973202635    1.6042798489   -1.3695065093
H        1.6353667963    0.4294030632   -2.5059163129
H        0.7342428720   -1.6863937681    2.6552189785
H        1.0081931322   -3.4119959693    2.2550825096
H       -0.5435510190   -2.6415177975    1.8317697603
H       -1.6124681539   -0.3195774147   -0.2170573774
20   
Generated by ForceBalance from scan.xyz: Frame 21 of 24
C       -1.5514362390    0.5280717080    0.5504817613
C        2.1883608624    0.8059811330    0.3293752591
C       -0.0965771573   -2.4386442211    0.2074482110
C       -3.0616726460    0.9061345743    0.7639680776
N       -1.2356526848    0.1579365376   -0.7256959861
O       -0.7739802599    0.5211297842    1.4857900700
O        0.2115424270   -0.4165744845   -2.7715578011
O        1.3035502479    0.8980858980   -0.8185482983
O        0.8059660303   -1.5243633320   -0.4557973960
P        0.3361829254   -0.2586146314   -1.3127738454
Cl      -4.0086600339   -0.6297016114    0.6180994374
Cl      -3.2994770320    1.6166152294    2.3686277751
Cl      -3.6044931731    2.0688725741   -0.5059245393
H        2.6541365681    1.7879996203    0.4103702917
H        2.9461278693    0.0414988276    0.1497828408
H        1.6150716042    0.5809751467    1.2280843741
H        0.4940421767   -3.3248126297    0.4393847861
H       -0.9255018122   -2.7141337515   -0.4488169693
H       -0.4682794961   -1.9839610391    1.1271732307
H       -1.9376311958    0.2486318079   -1.4551541878
20   
Generated by ForceBalance from scan.xyz: Frame 22 of 24
C       -1.5677014466    0.5326312293    0.6066593715
C        2.1769535367    0.8454443014    0.3690090659
C       -0.1372632326   -2.5168126018    0.1077835969
C       -3.0861014777    0.8807834453    0.8178730473
N       -1.2411998726    0.1807538772   -0.6722665031
O       -0.7953548990    0.5294463617    1.5456652675
O        0.1915215867   -0.4894144127   -2.6938309180
O        1.3082941980    0.8917634235   -0.7954363870
O        0.7856346689   -1.4896263545   -0.3198817973
P        0.3265908303   -0.2675347935   -1.2438852448
Cl      -4.0004125141   -0.6751431940    0.6773193021
Cl      -3.3392936801    1.5920491132    2.4199259500
Cl      -3.6549350391    2.0271994991   -0.4560351499
H        2.6368739359    1.8320825939    0.4210849670
H        2.9400821914    0.0786989494    0.2256273883
H        1.5914414434    0.6464314205    1.2657994910
H        0.4773738208   -3.3326555568    0.4876629479
H       -0.7402589213   -2.8717652978   -0.7317894434
H       -0.7752351397   -2.1295945924    0.9045910867
H       -1.9407927744    0.2684891219   -1.4040693082
20   
Generated by ForceBalance from scan.xyz: Frame 23 of 24
C       -1.5268058596    0.6123434522    0.6342377801
C        2.2230404295    0.8550627601    0.3320230756
C       -0.0973405587   -2.6047564640    0.0004863772
C       -3.0487781794    0.9349989307    0.8641320813
N       -1.2214664019    0.2158553783   -0.6382916887
O       -0.7354667208    0.6683082539    1.5541435773
O        0.1690204091   -0.5979211511   -2.6362311393
O        1.3395326064    0.8632076408   -0.8228667689
O        0.7705331110   -1.4686852331   -0.2137408663
P        0.3280911476   -0.2921859643   -1.2036070698
Cl      -3.9304960930   -0.6460593456    0.8058740223
Cl      -3.2861206998    1.7045491218    2.4411387668
Cl      -3.6714523520    2.0149314458   -0.4425013582
H        2.7123981144    1.8287220818    0.3230128053
H        2.9609087672    0.0586581486    0.2221498381
H        1.6428032572    0.7232930621    1.2443913550
H        0.4531321378   -3.2849941984    0.6495893531
H       -0.3237767305   -3.0944747936   -0.9500273564
H       -1.0187859805   -2.2861884386    0.4943703564
H       -1.9404757127    0.2521382564   -1.3552730662
20   
Generated by ForceBalance from scan.xyz: Frame 24 of 24
C       -1.5484289896    0.7007157519    0.6586919912
C        2.2101227215    0.8619179465    0.3377952113
C       -0.0467876343   -2.6916673408   -0.0863546007
C       -3.0738613968    1.0067426898    0.8904011155
N       -1.2504509555    0.2502745955   -0.5981827444
O       -0.7487512225    0.8158123421    1.5650996050
O        0.1194425886   -0.6912954435   -2.5544080030
O        1.3264109854    0.8341959087   -0.8175321250
O        0.7002547117   -1.4514807734   -0.0943621812
P        0.2867354306   -0.3116935981   -1.1399052188
Cl      -3.9291843109   -0.5886554047    0.9137670477
Cl      -3.3091786827    1.8450106791    2.4321961994
Cl      -3.7278882165    2.0159115451   -0.4587361011
H        2.7269962028    1.8193165533    0.2778887606
H        2.9240858534    0.0395045183    0.2701740744
H        1.6258841826    0.7952786816    1.2546900549
H        0.4398458633   -3.3301401139    0.6502199521
H       -0.0151330546   -3.1566566366   -1.0741189978
H       -1.0819038529   -2.5033354426    0.2131356413
H       -1.9740345464    0.2559785997   -1.3113114965
