53

C      3.94883   -2.29535   12.19101
C      2.65865   -1.70347   12.24688
C      4.60526   -2.41665   10.98442
C      4.61767   -2.04459    8.51270
C      2.36315    0.04690    1.62517
C      0.32972    0.80435    2.65968
C      2.04610   -1.24343   11.09988
C      2.84984   -0.35343    2.86466
C      0.80269    0.40484    3.91635
C      3.96226   -1.57005    7.39867
C      3.99901   -1.95153    9.78588
C      1.09109    0.63289    1.50284
C      2.69860   -1.35526    9.84182
C      2.07068   -0.17868    4.01936
C      2.67262   -0.99616    7.56252
C     -0.74095   -1.14845   -0.08547
C     -2.06830   -1.21141   -0.28726
C      1.51164    1.95641   -0.55361
C     -2.92371   -2.19619    0.47473
C     -2.82954   -0.33526   -1.25326
C      2.13891    4.21396   -0.86211
C      1.88383   -0.45486    6.38987
C      0.23714   -0.21253   -0.74613
C      0.53378    1.02255    0.14127
N      2.06171   -0.88943    8.72846
O      2.46190    1.60384   -1.22852
O      2.63713   -0.60778    5.19228
O      1.21408    3.25408   -0.30918
H      4.41573   -2.65228   13.10514
H      2.15301   -1.61431   13.20493
H      5.59338   -2.86906   10.93568
H      5.60627   -2.49090    8.42762
H      2.97944   -0.08878    0.74051
H     -0.65940    1.24984    2.58784
H      1.06023   -0.78824   11.12285
H      3.83360   -0.80365    2.96268
H      0.17780    0.55377    4.78939
H      4.40092   -1.62274    6.40950
H     -0.31235   -1.81528    0.66175
H     -3.70234   -1.67737    1.04940
H     -2.33067   -2.79728    1.16942
H     -3.44311   -2.87811   -0.21137
H     -3.36343   -0.94650   -1.99222
H     -2.19274    0.36735   -1.79388
H     -3.59313    0.24635   -0.72059
H      1.75443    5.19065   -0.56861
H      2.17688    4.12455   -1.95031
H      3.13957    4.05467   -0.45344
H      0.93243   -0.99758    6.31945
H      1.65613    0.60338    6.57070
H      1.18033   -0.73189   -0.94022
H     -0.12853    0.13316   -1.71706
H     -0.39625    1.57407    0.29987
