29   

C        2.3220062095   -3.3713168534    0.4960870353
C        3.1980990488   -2.5967799576    1.2589496978
C        0.9445136882   -3.2466207035    0.6856222325
C        2.6974110174   -1.7147395468    2.2231506994
C        0.4430497342   -2.3634012480    1.6479509760
C       -0.1733570999   -3.4794173741    5.7544448758
C        0.4098214497   -4.7286286143    5.9782401505
C       -1.1143508433   -4.3114951731    3.6965869022
C        1.3108384069   -1.6114618286    2.4591259217
C       -0.9290640291   -3.2543767505    4.5998890025
C        0.2457837307   -5.7761631466    5.0634951002
C       -0.5294614323   -5.5650987371    3.9089471262
C        0.8672672910   -0.6482524085    3.4698439638
C       -0.3002261262   -0.4753195610    4.1185626354
O       -2.5075404806   -1.6521630788    3.0642546639
O       -2.4798323795   -1.2135950187    5.4586697597
S       -1.6897865071   -1.6260951756    4.2885675988
Cl       1.0007384104   -7.3234800064    5.3776836446
Cl      -0.7754799317   -6.8391748606    2.7340683263
H        2.7082435213   -4.0565260659   -0.2503991557
H        4.2678111437   -2.6790986276    1.1025222444
H        0.2596689220   -3.8253203374    0.0757747090
H        3.3994855526   -1.1232234383    2.8001518292
H       -0.6285398913   -2.2556269609    1.7179134246
H       -0.0402327297   -2.6824312752    6.4809598601
H        0.9977646974   -4.8947420258    6.8730799320
H       -1.7230603055   -4.1644219156    2.8087559529
H        1.6254195555    0.0750420761    3.7524048097
H       -0.4374703153    0.4184972920    4.7082098404
29   

C        2.1688333170   -3.5528045740    0.6819328718
C        3.0575577184   -2.9056582729    1.5439583546
C        0.8156314397   -3.2072336416    0.6939588031
C        2.5900918421   -1.9283867277    2.4300300133
C        0.3474806812   -2.2302797957    1.5793963224
C       -0.1068671160   -3.4261874749    5.7115828170
C        0.5518669487   -4.6442517165    5.8954170047
C       -0.9823638538   -4.2416650521    3.6188184102
C        1.2209392305   -1.6029353583    2.4840970223
C       -0.8670871733   -3.2074240411    4.5590202265
C        0.4602267614   -5.6659159965    4.9417836471
C       -0.3208130751   -5.4626064151    3.7899859527
C        0.7885850688   -0.5637590292    3.4267177528
C       -0.3743241938   -0.4020685206    4.0822573255
O       -2.5500296490   -1.6654985419    3.0763020997
O       -2.4862194131   -1.2413389145    5.4753862965
S       -1.7081033253   -1.6124466785    4.2834340077
Cl       1.3133167536   -7.1713987846    5.2033745131
Cl      -0.4758055200   -6.7037432824    2.5653382756
H        2.5293681322   -4.3123806844   -0.0029037687
H        4.1108039017   -3.1622397508    1.5259745333
H        0.1270520061   -3.6895710989    0.0090969287
H        3.2962031119   -1.4382118257    3.0909529200
H       -0.6971975701   -1.9509689647    1.5312104885
H       -0.0263155662   -2.6474932235    6.4651476433
H        1.1447222719   -4.8053460709    6.7878473699
H       -1.5899000827   -4.0980191654    2.7297008230
H        1.5488919718    0.1716634610    3.6695169967
H       -0.5408695637    0.5036662601    4.6453638037
29   

C        1.9549143523   -3.7091558348    0.8288088996
C        2.8092312013   -3.2514105251    1.8358170453
C        0.7022439801   -3.1144026935    0.6569619777
C        2.4073416923   -2.2072085649    2.6767166036
C        0.2978306743   -2.0742046561    1.5007880145
C       -0.0856508939   -3.3881508131    5.6851002172
C        0.6451873366   -4.5678986102    5.8469828420
C       -0.8671351283   -4.1929768426    3.5515167034
C        1.1372304989   -1.6222771799    2.5329554373
C       -0.8332851577   -3.1812843111    4.5220940615
C        0.6382059619   -5.5628832113    4.8611529720
C       -0.1337110299   -5.3750247721    3.7008704701
C        0.7369044206   -0.5324933946    3.4406843584
C       -0.4296955076   -0.3681635046    4.0831935455
O       -2.5434764307   -1.6832907758    3.0238415056
O       -2.5425246547   -1.2830456390    5.4335222214
S       -1.7324361464   -1.6162307594    4.2515409894
Cl       1.5875448123   -7.0148695794    5.0914778042
Cl      -0.1829541924   -6.5838065953    2.4356091332
H        2.2646883463   -4.5200722758    0.1788885930
H        3.7838600196   -3.7080950821    1.9659826355
H        0.0419910891   -3.4571563616   -0.1319834564
H        3.0802976516   -1.8656311190    3.4551393036
H       -0.6704239578   -1.6121880666    1.3394585142
H       -0.0650308241   -2.6267619508    6.4600245376
H        1.2317294794   -4.7180878436    6.7454443755
H       -1.4588088705   -4.0561597861    2.6507190928
H        1.5147269823    0.1854014379    3.6802596524
H       -0.6159993315    0.5356387955    4.6429381411
29   

C        1.8470400923   -3.7480629063    0.8906281223
C        2.6266523474   -3.3936806039    1.9956238049
C        0.6928425009   -3.0187518142    0.5912329076
C        2.2526323354   -2.3112453346    2.8003170364
C        0.3159859337   -1.9404001974    1.3991239933
C       -0.0781140996   -3.3634543517    5.6551653886
C        0.6730512192   -4.5294360748    5.8248929507
C       -0.8015875289   -4.1711232669    3.5019632590
C        1.0907881315   -1.5767877120    2.5123706319
C       -0.8077041112   -3.1650503264    4.4790615420
C        0.7022406734   -5.5202297180    4.8352923900
C       -0.0519705320   -5.3419454184    3.6619462557
C        0.6919943487   -0.4564548508    3.3922654672
C       -0.4509102876   -0.3416796510    4.0807140972
O       -2.5003459878   -1.6861442511    2.9417198419
O       -2.5850147990   -1.3127536486    5.3565278539
S       -1.7321633011   -1.6162458519    4.1967288791
Cl       1.6751343056   -6.9547828403    5.0765517973
Cl      -0.0588496229   -6.5489702108    2.3939214441
H        2.1348755943   -4.5885881182    0.2688373004
H        3.5194959013   -3.9617514591    2.2311868571
H        0.0853107740   -3.2896679846   -0.2651255578
H        2.8615261909   -2.0518898511    3.6589994147
H       -0.5844411966   -1.3837722915    1.1580050421
H       -0.0863150602   -2.6056896205    6.4338260541
H        1.2466116104   -4.6725036619    6.7329049516
H       -1.3746252781   -4.0381150517    2.5885947468
H        1.4530073583    0.2933486355    3.5829867916
H       -0.6456078730    0.5391041105    4.6731963373
29   

C        2.0812615868   -3.2008724400    0.8074139014
C        2.3630954530   -3.9910364787    1.9260920010
C        1.8244481492   -1.8357511394    0.9664064800
C        2.3931614368   -3.4154900668    3.2016116832
C        1.8527120316   -1.2614946942    2.2420050788
C       -0.8249577466   -3.9144588798    4.9266816698
C       -0.9392732620   -5.1886787604    4.3642045813
C       -1.0269853835   -2.9506478167    2.7257601779
C        2.1472752585   -2.0436623913    3.3688127183
C       -0.8487999124   -2.7819914378    4.1067160281
C       -1.0925272883   -5.3570372229    2.9821493935
C       -1.1463496913   -4.2223031263    2.1533363589
C        2.1380856025   -1.4559277123    4.7318931350
C        1.0608777457   -1.0821932333    5.4302754968
O       -0.8100271263   -0.0828861727    3.7617215686
O       -1.5529480057   -0.9114605023    5.9397597802
S       -0.6372767164   -1.1084604344    4.8050389273
Cl      -1.2112243331   -6.9708490303    2.3155814814
Cl      -1.3458975059   -4.3719225000    0.4204433897
H        2.0531254918   -3.6474444452   -0.1803910593
H        2.5505564617   -5.0519631516    1.8050242385
H        1.5964972679   -1.2211946272    0.1026054576
H        2.6000180214   -4.0396995822    4.0635248706
H        1.6361242350   -0.2040222962    2.3590376971
H       -0.7087568931   -3.8048649268    6.0014302053
H       -0.9079683086   -6.0636243173    5.0025880231
H       -1.0585771125   -2.0797584067    2.0768889825
H        3.0902032429   -1.4458378456    5.2525591343
H        1.1602104378   -0.7227903431    6.4429876370
29   

C        2.1000058318   -3.2793194307    0.8611412597
C        2.2728389857   -4.0141885534    2.0381577490
C        1.9395238061   -1.8916877000    0.9241416032
C        2.2877670053   -3.3612636486    3.2760795398
C        1.9575745689   -1.2397571035    2.1622230013
C       -0.7993042754   -3.9544842115    4.9175876310
C       -0.9078701655   -5.2112799228    4.3153921988
C       -1.0269133250   -2.9231108813    2.7495183647
C        2.1401816937   -1.9678322427    3.3463124774
C       -0.8393657578   -2.7967793771    4.1339291494
C       -1.0729231182   -5.3368089610    2.9299871053
C       -1.1430341356   -4.1768105273    2.1381749968
C        2.1264060470   -1.2895134311    4.6700026622
C        1.0602188145   -1.0368348903    5.4342764506
O       -0.9286216910   -0.0925658810    3.8835388397
O       -1.5321063391   -1.0225196502    6.0613940482
S       -0.6601559286   -1.1414320881    4.8820560411
Cl      -1.1860482834   -6.9293332626    2.2131631781
Cl      -1.3591893377   -4.2727340926    0.4034389455
H        2.0810458375   -3.7856096351   -0.0976621653
H        2.3854947535   -5.0914522840    1.9915504628
H        1.7952989158   -1.3200293613    0.0141146500
H        2.4097856039   -3.9405677893    4.1842869356
H        1.8173728415   -0.1643561623    2.2057817540
H       -0.6787091188   -3.8779037066    5.9947875176
H       -0.8651591657   -6.1060384827    4.9250716247
H       -1.0718470522   -2.0322341585    2.1290758869
H        3.0997571559   -1.0568249048    5.0898259149
H        1.1829348204   -0.6684713898    6.4412052898
29   

C        2.7883057185   -4.2957544488    2.0007106023
C        3.1455892676   -4.1035579096    3.3386398392
C        2.0482325409   -3.3161464643    1.3323323065
C        2.7582741725   -2.9364868623    4.0068926939
C        1.6646355673   -2.1491144056    2.0025136431
C       -0.3982647254   -4.1793697000    3.9962228263
C       -0.7766345910   -4.8744860365    2.8471975475
C       -1.7264162448   -2.2989483925    3.2794388631
C        2.0025143710   -1.9545791265    3.3505991127
C       -0.8571974683   -2.8759198363    4.2152504534
C       -1.6182479964   -4.2878159869    1.8958765884
C       -2.1038848118   -2.9853368908    2.1172440716
C        1.6164645780   -0.7049149725    4.0536402430
C        0.6689720958   -0.5680780713    4.9868592657
O       -1.4469001754   -1.3783687538    6.4010590373
O        0.5584997883   -2.7740345974    6.5355541937
S       -0.2950524615   -1.9359503283    5.6754091174
Cl      -2.0407984551   -5.1815086652    0.4518043686
Cl      -3.1576844040   -2.2037161557    0.9588669464
H        3.0871811607   -5.1998034631    1.4818950430
H        3.7239025833   -4.8573224987    3.8612729947
H        1.7697078727   -3.4598522919    0.2943408464
H        3.0369249233   -2.7967748309    5.0469473644
H        1.0902894737   -1.3962557345    1.4741119170
H        0.2717311869   -4.6465086082    4.7137166640
H       -0.4028759185   -5.8779168068    2.6826345103
H       -2.1057620871   -1.2947393540    3.4431850462
H        2.0699953405    0.2075040351    3.6800066987
H        0.4268848394    0.4032834413    5.3900433970
29   

C        2.8474090579   -4.2853814219    2.0180135965
C        3.0672242679   -4.1107174103    3.3872400188
C        2.2083592004   -3.2819064297    1.2844429603
C        2.6400282118   -2.9390194823    4.0219433503
C        1.7875333686   -2.1084707097    1.9203190306
C       -0.4114479366   -4.1920284297    3.9949120186
C       -0.8038585917   -4.8720761677    2.8415579139
C       -1.7303276270   -2.2944921813    3.3077167608
C        1.9831324431   -1.9310626064    3.2986739001
C       -0.8572736508   -2.8869513179    4.2299344864
C       -1.6495686432   -4.2696470325    1.9036946556
C       -2.1239988069   -2.9662909520    2.1427857192
C        1.5350846803   -0.6883072074    3.9660982485
C        0.6707270690   -0.5830064508    4.9832800024
O       -1.4104887014   -1.4096496784    6.4389662775
O        0.5998829099   -2.8000521379    6.5279996394
S       -0.2710314886   -1.9591511655    5.6882353527
Cl      -2.0924189925   -5.1455680404    0.4548406386
Cl      -3.1836097869   -2.1653097988    1.0030775049
H        3.1754745941   -5.1940374884    1.5255488458
H        3.5698056156   -4.8815181104    3.9608782037
H        2.0370611119   -3.4123974755    0.2217823334
H        2.8191549449   -2.8147630606    5.0855709327
H        1.2900881676   -1.3393868379    1.3398831939
H        0.2596299997   -4.6721177348    4.7027084795
H       -0.4392467835   -5.8765331925    2.6632789538
H       -2.0997179386   -1.2887615127    3.4842866100
H        1.8584897663    0.2400429000    3.5063512512
H        0.4396649666    0.3814113763    5.4090864702
29   

C        2.9381591051   -4.2200062106    1.9827388279
C        2.9751830761   -4.1077962301    3.3746932771
C        2.4433508246   -3.1624299075    1.2157294163
C        2.5064765156   -2.9457302140    3.9975422686
C        1.9814666019   -1.9985658286    1.8405213687
C       -0.4718347249   -4.1820192323    4.0738808928
C       -0.8817276021   -4.8997066357    2.9497160773
C       -1.7545480459   -2.2875828278    3.3140804605
C        1.9906428089   -1.8803797955    3.2396474813
C       -0.8906109587   -2.8597877651    4.2571500447
C       -1.7207673920   -4.3193171919    1.9919753131
C       -2.1677397074   -2.9980338729    2.1795954483
C        1.4740279099   -0.6565091255    3.8779540664
C        0.6641752122   -0.5463310133    4.9421104181
O       -1.4353515771   -1.3004056236    6.4079758334
O        0.5506805874   -2.7130202275    6.5624321811
S       -0.2983504704   -1.8894863755    5.6842567257
Cl      -2.1929044954   -5.2460511240    0.5845558207
Cl      -3.2206118816   -2.2239627012    1.0153169652
H        3.2978673667   -5.1213881696    1.4990630515
H        3.3709850083   -4.9189553927    3.9755962383
H        2.4153403470   -3.2438783947    0.1348957529
H        2.5619327587   -2.8719111514    5.0783563636
H        1.5947709314   -1.1900203819    1.2301281566
H        0.1876959726   -4.6487543064    4.8011853390
H       -0.5398281052   -5.9183889725    2.8113339040
H       -2.1050982003   -1.2691967632    3.4523394818
H        1.7213409022    0.2721379949    3.3736768875
H        0.4562723298    0.4248098589    5.3647883262
29   

C        3.0358093960   -4.0341715750    1.7318759757
C        2.7687058809   -4.1483468233    3.0970779137
C        2.8214766355   -2.8153127118    1.0865696495
C        2.2771234725   -3.0503917830    3.8117232414
C        2.3319175369   -1.7182533249    1.8038857034
C       -0.6795795697   -4.3060543546    4.3343984628
C       -1.1066369202   -5.1047712825    3.2727264250
C       -1.5975673903   -2.3706160054    3.2274339007
C        2.0358168978   -1.8186730847    3.1748676121
C       -0.9101450068   -2.9258703555    4.3150827299
C       -1.7733943621   -4.5475788194    2.1756398702
C       -2.0245006178   -3.1630145292    2.1541834282
C        1.4875024921   -0.6491378751    3.8708062028
C        0.6529315345   -0.5596063127    4.9213517992
O       -1.4770958113   -1.2550030848    6.3676449155
O        0.4920052452   -2.6577645963    6.6277628517
S       -0.3296126635   -1.8751243961    5.6885342643
Cl      -2.2816672677   -5.5825650805    0.8591039495
Cl      -2.8567067874   -2.4137899394    0.8090198374
H        3.4147424925   -4.8853912956    1.1772143373
H        2.9498543995   -5.0870845217    3.6082302764
H        3.0321068840   -2.7195937974    0.0272795391
H        2.1182096270   -3.1656707968    4.8757544968
H        2.1657986647   -0.7841819107    1.2787348077
H       -0.1628263771   -4.7589570628    5.1771027874
H       -0.9192172622   -6.1717253797    3.2951929690
H       -1.8019091404   -1.3047113868    3.2040407504
H        1.7648567519    0.3052554543    3.4346982048
H        0.4489550335    0.4115624369    5.3464173931
29   

C        3.3431346366   -3.9362522287    1.7049338893
C        2.8302868418   -4.1448916416    2.9852829497
C        3.2553539189   -2.6701246790    1.1267880812
C        2.2226000431   -3.0939809021    3.6813657899
C        2.6481513234   -1.6207094560    1.8248549647
C       -0.7889874849   -4.3438486874    4.3990121233
C       -1.3004521607   -5.1636920576    3.3917740948
C       -1.7282151831   -2.4208665408    3.2878837310
C        2.1088345871   -1.8098534557    3.1117901053
C       -0.9889222892   -2.9594793663    4.3498864694
C       -2.0230077958   -4.6240636493    2.3213293715
C       -2.2412317924   -3.2348271946    2.2699814508
C        1.4424836690   -0.6768155944    3.7569882841
C        0.6016603581   -0.5815683806    4.8046188615
O       -1.4303403058   -1.2475412007    6.3943576960
O        0.5509050855   -2.6439317201    6.5701918982
S       -0.3236104475   -1.8816677159    5.6627923514
Cl      -2.6428128295   -5.6864449313    1.0762331638
Cl      -3.1422957436   -2.5067620265    0.9577973521
H        3.8127171446   -4.7512927067    1.1654459552
H        2.9102461201   -5.1223349040    3.4473661388
H        3.6554060069   -2.5001656135    0.1334533064
H        1.8803454880   -3.2988767708    4.6836049293
H        2.5860877718   -0.6501939852    1.3451574590
H       -0.2363430549   -4.7846824940    5.2253067009
H       -1.1394953352   -6.2342910043    3.4377697938
H       -1.9113669300   -1.3517102092    3.2432567259
H        1.6711903812    0.2821572088    3.3031750534
H        0.3527353209    0.4012086186    5.1759346958
29   

C        2.8480716744   -2.1961282721    0.3981603733
C        1.4892035772   -2.1444643638    0.7054601141
C        3.7858451348   -1.8886353780    1.3823643703
C        1.0691152271   -1.7926639028    1.9932226473
C        3.3631074134   -1.5369199744    2.6687512844
C       -0.7088858099   -4.1786392759    5.3647500816
C       -0.6499538445   -5.5528814949    5.1236572444
C       -1.4879011206   -3.8356406700    3.1090307656
C        1.9959776804   -1.4836688375    3.0097179211
C       -1.1134207967   -3.3027467629    4.3517652236
C       -0.9991561643   -6.0817141202    3.8753943251
C       -1.4268063066   -5.2115745978    2.8559778321
C        1.6517682300   -1.1550317751    4.3938911743
C        0.5039679391   -1.0449878674    5.0926639046
O       -1.6783358884   -0.7795696588    3.4766241212
O       -2.0412986359   -1.2536920435    5.8383514477
S       -1.1947593778   -1.5058957020    4.6623251359
Cl      -0.9046479535   -7.8095956194    3.6128329413
Cl      -1.8861428142   -5.8177815620    1.2794265388
H        3.1721091804   -2.4700781588   -0.5997486705
H        0.7535187552   -2.3732179025   -0.0575292766
H        4.8443980513   -1.9248267169    1.1505781113
H        0.0082193136   -1.7504993655    2.1582099636
H        4.1205463825   -1.3111378019    3.4110471975
H       -0.4430648523   -3.7917967081    6.3448256162
H       -0.3324806797   -6.2241906992    5.9129356543
H       -1.8400578154   -3.1767594339    2.3201623132
H        2.5178851432   -0.9047257884    4.9977997361
H        0.5606728072   -0.6501738622    6.0958874996
29   

C        2.5737047572   -2.6838881522    0.6592730861
C        1.2555813272   -2.2934611226    0.8950605667
C        3.5375842264   -2.4840991161    1.6474493226
C        0.9003021654   -1.7157603927    2.1189710360
C        3.1794537448   -1.9070675572    2.8708047366
C       -0.3692672959   -4.1254092760    5.3946479011
C       -0.1334555275   -5.4672062305    5.0870660799
C       -1.3050037240   -3.8081754794    3.1954769687
C        1.8521548331   -1.5215584822    3.1399369982
C       -0.9433486920   -3.2774957788    4.4426891905
C       -0.4703231999   -5.9901957312    3.8325009931
C       -1.0668877116   -5.1496514352    2.8753578495
C        1.5406387527   -0.9859316772    4.4666903558
C        0.3870297600   -0.8071182444    5.1389706228
O       -1.9173069221   -0.8440412602    3.7014028086
O       -2.0349720342   -1.4123782999    6.0648024249
S       -1.2495269897   -1.5206098847    4.8259727750
Cl      -0.1493024231   -7.6750349031    3.4845281907
Cl      -1.5155204149   -5.7490833596    1.2931184114
H        2.8478576490   -3.1335346117   -0.2886605791
H        0.5048358568   -2.4302143205    0.1247039114
H        4.5648311524   -2.7811172558    1.4682443279
H       -0.1209770108   -1.3886496153    2.2346790146
H        3.9483411184   -1.7759943949    3.6240406074
H       -0.1072599637   -3.7417732650    6.3769228484
H        0.3155655063   -6.1175994955    5.8282719699
H       -1.7801097224   -3.1720251371    2.4537955066
H        2.4138766806   -0.6576696953    5.0211670558
H        0.4082765923   -0.2335044778    6.0533022187
29   

C        2.3665381120   -2.8756661971    0.7558130784
C        1.1397766368   -2.2297732927    0.9151879947
C        3.3044412479   -2.8398185084    1.7888675586
C        0.8467038009   -1.5625741660    2.1097194451
C        3.0092252369   -2.1707615156    2.9819697514
C       -0.2860223350   -4.0824313855    5.3888572258
C        0.0353238750   -5.4020014306    5.0621137419
C       -1.1457751284   -3.7638811774    3.1594244580
C        1.7694638624   -1.5350269365    3.1722012215
C       -0.8641265985   -3.2440828381    4.4312315979
C       -0.2184474437   -5.9113710849    3.7823849162
C       -0.8206350108   -5.0816391381    2.8196336149
C        1.4908088535   -0.8916382573    4.4613580667
C        0.3362431087   -0.7085524134    5.1266550653
O       -1.9683288542   -0.8636041089    3.7076764726
O       -2.0442476805   -1.4450006715    6.0721041526
S       -1.2625278579   -1.5088114058    4.8276549823
Cl       0.2136057700   -7.5656922952    3.4093500987
Cl      -1.1648293631   -5.6632978783    1.2048902401
H        2.5918464269   -3.3962896309   -0.1683722422
H        0.4140390969   -2.2391169597    0.1095806159
H        4.2613154378   -3.3349445416    1.6673644125
H       -0.0974675087   -1.0391986630    2.1829807264
H        3.7498271143   -2.1654917939    3.7739105949
H       -0.0847095731   -3.7074453994    6.3886242899
H        0.4887868879   -6.0449313596    5.8070040685
H       -1.6189386018   -3.1340765418    2.4112397325
H        2.3722652281   -0.5375244682    4.9862023563
H        0.3328220766   -0.0893235184    6.0108408711
29   

C        2.1200518855   -2.9628640317    0.8077631001
C        1.0734946747   -2.0426695487    0.9002499929
C        2.9596248117   -3.1692235353    1.9048947999
C        0.8578452998   -1.3431125841    2.0927729486
C        2.7462745445   -2.4634501798    3.0944091998
C       -0.2636164906   -4.0372366676    5.3840432354
C        0.1404127679   -5.3345049025    5.0587370210
C       -0.9881485913   -3.7171816124    3.1073732250
C        1.6814244415   -1.5556637811    3.2119421285
C       -0.8137249338   -3.2079284929    4.4022705787
C       -0.0032028952   -5.8305426431    3.7567471059
C       -0.5811402935   -5.0124922328    2.7696969526
C        1.4503236379   -0.8541780291    4.4870516315
C        0.2923686732   -0.6566461929    5.1360410143
O       -1.9499652812   -0.8557513507    3.6337015969
O       -2.1081072198   -1.4401608055    5.9996094027
S       -1.2801028058   -1.4855014308    4.7844332122
Cl       0.5378217044   -7.4527898156    3.3850969334
Cl      -0.7883775650   -5.5785007882    1.1261886792
H        2.2817961221   -3.5120014148   -0.1132267972
H        0.4260221189   -1.8693755358    0.0478563743
H        3.7748216483   -3.8805802787    1.8351772833
H        0.0491118302   -0.6215337540    2.1373785820
H        3.4027190861   -2.6421636224    3.9385879249
H       -0.1419040590   -3.6698619391    6.3993660394
H        0.5759490623   -5.9691177572    5.8212324860
H       -1.4323783753   -3.0922539770    2.3377237499
H        2.3446291585   -0.5216329586    5.0041383647
H        0.2665854919   -0.0297654687    6.0142583058
29   

C        2.0209874474   -2.9779152618    0.8329853482
C        1.1113951864   -1.9175473067    0.8655142030
C        2.7467491457   -3.3050833367    1.9815393975
C        0.9200584754   -1.1942870457    2.0480045003
C        2.5583436854   -2.5763679131    3.1613938979
C       -0.2694134491   -4.0090790301    5.3802657193
C        0.1551592166   -5.3037180091    5.0701547068
C       -0.9163647512   -3.6953485164    3.0791174894
C        1.6295380704   -1.5256280174    3.2132946678
C       -0.7917883296   -3.1844553245    4.3792846821
C        0.0573857712   -5.8026723092    3.7650355902
C       -0.4932211325   -4.9900292058    2.7581166551
C        1.4232965841   -0.7666093958    4.4665115469
C        0.2768085410   -0.6301812098    5.1448541026
O       -1.9034339625   -0.8369318230    3.5614469523
O       -2.1521485430   -1.4168456899    5.9238787502
S       -1.2795993591   -1.4626273308    4.7401588338
Cl       0.6222685013   -7.4213716176    3.4137054936
Cl      -0.6458688179   -5.5622101185    1.1106827674
H        2.1630052633   -3.5448239789   -0.0804677121
H        0.5500140021   -1.6554948369   -0.0244272083
H        3.4532348810   -4.1271293222    1.9587000295
H        0.2105841409   -0.3725345900    2.0587690825
H        3.1244348117   -2.8437894975    4.0464911925
H       -0.1835858423   -3.6396588232    6.3984933324
H        0.5705816715   -5.9342367059    5.8472035092
H       -1.3331657611   -3.0717726271    2.2931536360
H        2.3186972789   -0.3770137312    4.9399853426
H        0.2399727560   -0.0296235818    6.0407837463
29   

C        1.9874197463   -3.0003498243    0.8745143732
C        1.1729501989   -1.8650575241    0.8371461299
C        2.6058791932   -3.3719547367    2.0715376264
C        0.9729124730   -1.1076883991    1.9966991920
C        2.4057471830   -2.6112962198    3.2290348611
C       -0.2600929429   -4.0229837216    5.3990048429
C        0.1633917575   -5.3144597876    5.0735825668
C       -0.9072011770   -3.6820003325    3.1013462653
C        1.5741603006   -1.4811642216    3.2071219398
C       -0.7828981370   -3.1866547648    4.4077809812
C        0.0622171731   -5.7991735224    3.7633049703
C       -0.4887842856   -4.9748265534    2.7661606083
C        1.3733435136   -0.6667190348    4.4319323276
C        0.2687478577   -0.6225120063    5.1838498702
O       -1.9159927607   -0.8425002952    3.6172677200
O       -2.1440981966   -1.4425482762    5.9781362352
S       -1.2798099922   -1.4713231988    4.7877105987
Cl       0.6240700675   -7.4147791948    3.3932056124
Cl      -0.6474360233   -5.5303738066    1.1135205345
H        2.1375101856   -3.5919956256   -0.0218075805
H        0.6924354409   -1.5713465223   -0.0894626318
H        3.2373313253   -4.2526615269    2.1035645891
H        0.3339059286   -0.2306899724    1.9593026858
H        2.8886805884   -2.9101182412    4.1525189761
H       -0.1740895417   -3.6657586073    6.4215718544
H        0.5792663995   -5.9543166603    5.8427790702
H       -1.3212002225   -3.0477866957    2.3223180218
H        2.2515864646   -0.1575712625    4.8155782846
H        0.2458654047   -0.0465857837    6.0962004793
29   

C        2.0008793921   -3.1045972536    0.9056337074
C        1.2681999522   -1.9229035804    0.7620574544
C        2.5022294276   -3.4623477277    2.1601603711
C        1.0360326527   -1.1028048521    1.8720927091
C        2.2661498405   -2.6412721925    3.2684745416
C       -0.2207335576   -4.0657494417    5.3690330590
C        0.1883918427   -5.3473694126    4.9895397325
C       -0.9545788282   -3.6573852806    3.1082358709
C        1.5203713477   -1.4595771127    3.1377556883
C       -0.7797977915   -3.2005972541    4.4230967575
C        0.0354125400   -5.7937297167    3.6705208358
C       -0.5527767656   -4.9405693460    2.7199209185
C        1.2976309745   -0.5725293548    4.3104135501
C        0.2614730286   -0.5972849427    5.1532333188
O       -2.0314682460   -0.8788846186    3.7707737821
O       -2.0448344191   -1.5168706956    6.1299582170
S       -1.2802170158   -1.5036141858    4.8727575722
Cl       0.5799899277   -7.3979507566    3.2316128160
Cl      -0.7778257164   -5.4482048422    1.0595491010
H        2.1776579155   -3.7431518521    0.0471614524
H        0.8778782568   -1.6413490127   -0.2095849304
H        3.0696799267   -4.3789627323    2.2750749532
H        0.4636488714   -0.1884366032    1.7525360315
H        2.6586213041   -2.9279744353    4.2375453911
H       -0.0985171246   -3.7398058556    6.3984296193
H        0.6316880298   -6.0103096967    5.7230887502
H       -1.3981180707   -3.0006736746    2.3648414656
H        2.1082906771    0.1095208044    4.5459274771
H        0.2687846756    0.0038692685    6.0494546894
29   

C        3.0349341807   -3.5152480439    2.1410935264
C        1.9431748177   -3.0684841439    1.3899595006
C        3.3210229619   -2.9209153441    3.3742517667
C        1.1432099450   -2.0243885056    1.8682491589
C        2.5189000839   -1.8790061144    3.8530756190
C        0.1962000336   -4.2880837511    4.3855049042
C        0.1131039588   -5.3007934039    3.4293556984
C       -1.8098594795   -3.2957250149    3.4888048729
C        1.4311536507   -1.4136391991    3.0994111207
C       -0.7574988196   -3.2649357359    4.4139104125
C       -0.9187123005   -5.3152772384    2.4845609533
C       -1.8957823893   -4.3026297219    2.5177154082
C        0.5522199119   -0.3315478905    3.6110391879
C       -0.3455938780   -0.4263983433    4.5971876953
O       -1.8624938858   -1.7344604756    6.3626955844
O        0.5498779451   -2.1141402295    6.5033451378
S       -0.6061239040   -1.8994493828    5.6153838032
Cl      -0.9669149084   -6.5848988061    1.2811165443
Cl      -3.2067053369   -4.2720287889    1.3584989008
H        3.6560468402   -4.3227429044    1.7696822757
H        1.7125273073   -3.5338520539    0.4381970749
H        4.1627765136   -3.2672241542    3.9635607897
H        0.2923894222   -1.6936189160    1.2829763978
H        2.7382952912   -1.4320161239    4.8179342824
H        1.0161148120   -4.2854373249    5.0993815327
H        0.8654159573   -6.0800758696    3.4099729812
H       -2.5686225047   -2.5192147127    3.5088614211
H        0.5569649390    0.5917397554    3.0406783684
H       -0.9805487755    0.4101053396    4.8458338129
29   

C        3.0799928442   -3.5025398505    2.1267472191
C        2.0582936876   -3.0169441437    1.3050053614
C        3.2537485904   -2.9708324059    3.4080242419
C        1.2137728298   -1.9989771614    1.7625588275
C        2.4052069593   -1.9575800257    3.8675272258
C        0.1762326347   -4.3086857811    4.4129515567
C        0.0872414861   -5.3169435115    3.4526843635
C       -1.8240539813   -3.3015053282    3.5205501690
C        1.3783338008   -1.4600618123    3.0493728685
C       -0.7699358465   -3.2786384225    4.4436120850
C       -0.9458500445   -5.3226611269    2.5091340108
C       -1.9178982472   -4.3054944373    2.5475942780
C        0.4625115355   -0.3997601923    3.5265953024
C       -0.3440239897   -0.4472087316    4.5943177991
O       -1.8525485784   -1.7263916029    6.3892553255
O        0.5579081212   -2.1186784067    6.5177934867
S       -0.6024469427   -1.9061345784    5.6350521161
Cl      -1.0024222063   -6.5875342624    1.3010893505
Cl      -3.2314472659   -4.2645086337    1.3916957120
H        3.7366541337   -4.2885609722    1.7707150072
H        1.9184778808   -3.4303081438    0.3124492638
H        4.0460218826   -3.3414666480    4.0489039130
H        0.4208693597   -1.6361601007    1.1179693012
H        2.5485990324   -1.5534916447    4.8650165968
H        0.9965804206   -4.3135243217    5.1262550247
H        0.8355882896   -6.0999264567    3.4290068746
H       -2.5771247533   -2.5195437597    3.5426532864
H        0.3552136049    0.4620795733    2.8758069574
H       -0.9511527657    0.4044019999    4.8607139273
29   

C        3.1689445638   -3.4158331099    2.0462335053
C        2.2470911475   -2.8246840212    1.1776743368
C        3.2050509346   -3.0293537763    3.3887710458
C        1.3589735640   -1.8526162543    1.6520216687
C        2.3131678301   -2.0620451484    3.8646474476
C        0.1131421355   -4.3359753342    4.4587812357
C        0.0098294086   -5.3603565509    3.5171309371
C       -1.8622967324   -3.3077828677    3.5357828744
C        1.3698433411   -1.4732091673    3.0057975980
C       -0.8131270662   -3.2874400509    4.4642751695
C       -1.0200160993   -5.3657358813    2.5698420914
C       -1.9721235295   -4.3293300777    2.5833536245
C        0.4228466449   -0.4465999240    3.4780043970
C       -0.3341251942   -0.4599271462    4.5854622072
O       -1.8963304231   -1.6879732845    6.3685905544
O        0.4997080719   -2.1272771343    6.5482471318
S       -0.6372505694   -1.9021014128    5.6388866154
Cl      -1.0996639622   -6.6563207851    1.3905790969
Cl      -3.2826208016   -4.2881766811    1.4239743188
H        3.8593365071   -4.1664103888    1.6776872138
H        2.2203531854   -3.1191584252    0.1345264592
H        3.9283102956   -3.4733929045    4.0636666683
H        0.6486222259   -1.4046803189    0.9660171391
H        2.3708073894   -1.7594065172    4.9048919173
H        0.9269523046   -4.3457253101    5.1794760224
H        0.7418352452   -6.1590516146    3.5130017635
H       -2.6012744435   -2.5121729528    3.5400075139
H        0.2611949034    0.3873877572    2.8025796486
H       -0.9102419488    0.4109982214    4.8584882911
29   

C        3.2150471654   -3.2063843151    1.8146977250
C        2.4537213368   -2.3918981504    0.9729650499
C        3.0626762271   -3.1068714006    3.1996475198
C        1.5313385569   -1.4898784386    1.5150425883
C        2.1396918230   -2.2064768023    3.7427212839
C       -0.0128551970   -4.4295137203    4.7470005495
C       -0.0996701044   -5.5370015629    3.9023174896
C       -1.7679399894   -3.3538790638    3.4915097362
C        1.3408195966   -1.4058988107    2.9079785998
C       -0.8395061920   -3.3194416636    4.5406087965
C       -1.0113850236   -5.5630460053    2.8408261008
C       -1.8582886544   -4.4581897004    2.6345092613
C        0.3671113208   -0.4334560458    3.4188229611
C       -0.4028945394   -0.4581983779    4.5205270722
O       -1.9937751612   -1.6287024855    6.3119762342
O        0.3923067129   -2.0198692721    6.5865680471
S       -0.7132729468   -1.8592895108    5.6265437394
Cl      -1.0804060856   -6.9666554056    1.7977484111
Cl      -3.0189945423   -4.4383421776    1.3246027821
H        3.9300828326   -3.9052279889    1.3949590197
H        2.5783683854   -2.4589344687   -0.1020021219
H        3.6684338054   -3.7199670860    3.8573707311
H        0.9505190608   -0.8668307352    0.8439729344
H        2.0778722015   -2.1218407676    4.8199866466
H        0.7024155886   -4.4298706745    5.5658696304
H        0.5480166055   -6.3896799029    4.0679445321
H       -2.4306224818   -2.5095430878    3.3285111476
H        0.2042610763    0.4250052281    2.7749827215
H       -0.9893735256    0.4122855293    4.7728627608
29   

C        3.4620696179   -3.0065246168    1.7369221165
C        2.7925318836   -2.0836194335    0.9314264506
C        3.1263344902   -3.1172984919    3.0875072288
C        1.7791146221   -1.2848498101    1.4726140760
C        2.1128941307   -2.3193112047    3.6298258579
C       -0.0948374624   -4.4990424712    4.8131141873
C       -0.2639742880   -5.6467841987    4.0369199042
C       -1.8964618561   -3.4403521774    3.6100285708
C        1.4007154955   -1.4117926201    2.8253416686
C       -0.9041035977   -3.3777296899    4.5976876800
C       -1.2427237906   -5.7030261570    3.0378542063
C       -2.0710543391   -4.5858843163    2.8232736845
C        0.3485800079   -0.5186111927    3.3172241204
C       -0.4185660792   -0.5318434065    4.4236353826
O       -1.9391804903   -1.5880205638    6.3384594725
O        0.4474156646   -2.0146327766    6.5273904297
S       -0.6950262698   -1.8740273923    5.6085709463
Cl      -1.4191413028   -7.1597829521    2.0840077858
Cl      -3.3156201046   -4.6031949860    1.5925728925
H        4.2484233202   -3.6252345565    1.3189240453
H        3.0600565825   -1.9848848698   -0.1146527812
H        3.6620917664   -3.8133887795    3.7229995488
H        1.2775894494   -0.5739737859    0.8253132944
H        1.9268655463   -2.4022752183    4.6894611450
H        0.6660129261   -4.4803575697    5.5896493979
H        0.3683802611   -6.5095543686    4.2098864397
H       -2.5484888968   -2.5881543317    3.4441856504
H        0.1412850520    0.3219383989    2.6626938384
H       -1.0366772955    0.3280646880    4.6336414079
29   

C        2.4745842896   -3.0687444984    0.1960154533
C        3.2869203580   -2.1549220799    0.8681621012
C        1.1476600658   -3.2354096601    0.5942757782
C        2.7752897848   -1.4186723338    1.9424313075
C        0.6346483623   -2.4991542473    1.6680056146
C       -0.3630735549   -3.5505163989    5.8165711701
C        0.0838919174   -4.8344062975    6.1365603791
C       -1.3061775685   -4.4104920898    3.7710077598
C        1.4434006004   -1.5927882359    2.3768946470
C       -1.0500758970   -3.3227604038    4.6195249215
C       -0.1507006711   -5.9149698135    5.2778119156
C       -0.8579205690   -5.7002540159    4.0808554081
C        1.0039482807   -0.7582949509    3.4965637351
C       -0.1472019334   -0.6230432418    4.1848405518
O       -2.3127485547   -1.6416290871    2.8825403867
O       -2.5232263049   -1.1545087322    5.2592935614
S       -1.6402251038   -1.6491580851    4.1922108502
Cl       0.4321646343   -7.5067164874    5.7137108432
Cl      -1.1892069261   -7.0154246827    2.9742225946
H        2.8683873398   -3.6395674794   -0.6376342529
H        4.3153582098   -2.0141953416    0.5550497343
H        0.5068900135   -3.9304675021    0.0631643644
H        3.4317992246   -0.7137032265    2.4401330393
H       -0.4045724488   -2.6437603628    1.9028615588
H       -0.1778356306   -2.7289806696    6.5031767568
H        0.6186105071   -5.0021650999    7.0640672735
H       -1.8675407873   -4.2607782403    2.8527074614
H        1.7612129127   -0.0578195130    3.8333891049
H       -0.2240024298    0.1909997929    4.8898429198
