29   
Generated by ForceBalance from scan.xyz: Frame 1 of 15
C        3.1114644815   -2.7570557530    0.6712251304
C        2.5594209337   -1.5106971243    0.3578753882
C        2.8022506280   -3.3722738164    1.8941491292
C        1.6974131276   -0.8816143325    1.2566679386
C        1.9478310243   -2.7462230818    2.7940068759
C       -0.1990653594   -4.3744948316    5.6696189889
C       -0.0338322065   -5.6066331249    5.0399293528
C       -1.4325700935   -3.5639601729    3.7307670399
C        1.3909331718   -1.4815425091    2.4939293585
C       -0.8906139770   -3.3658227677    4.9983710827
C       -0.5437203503   -5.8173450403    3.7530940124
C       -1.2504735778   -4.7952114756    3.0972949789
C        0.5091501165   -0.7873169015    3.4275816395
C        0.3878060838   -0.8933446838    4.8032310948
O       -2.1632467835   -1.0450045418    5.2713036086
O       -0.5912246014   -1.7826916416    7.1278316980
S       -0.9261336337   -1.7117408648    5.7003690675
Cl      -0.2805887699   -7.3620647691    2.9932694965
Cl      -1.9010623663   -5.0201020008    1.4978909827
H        3.7856413507   -3.2446912155   -0.0277513437
H        2.7993994065   -1.0309617188   -0.5869861952
H        3.2351208960   -4.3381036468    2.1404892408
H        1.2653375618    0.0851789758    1.0090809748
H        1.7275155730   -3.2108803401    3.7504880167
H        0.2040769672   -4.1904023820    6.6603382203
H        0.4977599891   -6.4125226838    5.5355977062
H       -1.9802463171   -2.7699343178    3.2341850570
H        0.4604612869    0.2643968109    3.1255389493
H        0.2448332589    0.1051526188    5.2377050548
29   
Generated by ForceBalance from scan.xyz: Frame 2 of 15
C        2.8396560281   -3.0738279369    0.8488558843
C        2.2244448864   -1.9008965223    0.3983362775
C        2.7226750651   -3.4517762682    2.1938884866
C        1.4817611968   -1.1191479916    1.2831527765
C        1.9878354773   -2.6697377379    3.0786598468
C       -0.1209010798   -4.3514835909    5.5099335213
C        0.1139157052   -5.5200306260    4.7883011383
C       -1.2891400861   -3.4152967849    3.5878202399
C        1.3501342919   -1.4909951026    2.6357523453
C       -0.8084583905   -3.3080433070    4.8902626717
C       -0.3191430027   -5.6297084489    3.4616639933
C       -1.0310351421   -4.5782289133    2.8605285735
C        0.5415697750   -0.6668667387    3.5329816962
C        0.3628656861   -0.7591282830    4.8918645275
O       -2.1711544924   -1.0636941844    5.3359133421
O       -0.5769418072   -1.8961375065    7.1359745255
S       -0.9112073709   -1.7173103522    5.7170195953
Cl       0.0505465954   -7.0855588485    2.5814007926
Cl      -1.5791376178   -4.6740138926    1.2109538246
H        3.4171990228   -3.6847006951    0.1603703813
H        2.3190423767   -1.6007344424   -0.6416268532
H        3.2125397386   -4.3542075296    2.5495659064
H        0.9913230542   -0.2157019857    0.9279168649
H        1.9242899399   -2.9464877626    4.1256528823
H        0.2313046955   -4.2387841091    6.5303341478
H        0.6475761150   -6.3499970716    5.2400732119
H       -1.8363185658   -2.5972117599    3.1317446662
H        0.5476981156    0.3738216132    3.1939404636
H        0.1869591707    0.2173860174    5.3562716809
29   
Generated by ForceBalance from scan.xyz: Frame 3 of 15
C        2.6534324293   -3.3741538288    1.1790038054
C        1.8832336788   -2.3722901297    0.5770017365
C        2.7813069983   -3.4108153436    2.5724928704
C        1.2269280166   -1.4287136791    1.3658215800
C        2.1256599868   -2.4695279169    3.3632324251
C        0.0073031189   -4.2969172135    5.2414855377
C        0.2626654284   -5.3884925276    4.4146606307
C       -1.2397104616   -3.2376592998    3.4372004369
C        1.3233561206   -1.4752888117    2.7703028578
C       -0.7267904247   -3.2270047020    4.7316597997
C       -0.1912712066   -5.3928024943    3.0912873753
C       -0.9561075684   -4.3198167555    2.6035514644
C        0.5569883417   -0.5315974344    3.5915111066
C        0.3097579057   -0.6052979790    4.9287815607
O       -2.1713367938   -1.1009319995    5.4330817436
O       -0.4676655026   -2.0252774277    7.0860541899
S       -0.8679583327   -1.7244330323    5.7045950168
Cl       0.2241016017   -6.7397398374    2.0704271533
Cl      -1.5400533930   -4.2887226907    0.9635731022
H        3.1594710062   -4.1148488871    0.5660628012
H        1.7843132305   -2.3373817201   -0.5043144336
H        3.3957361540   -4.1744619833    3.0417283987
H        0.6067541101   -0.6678667086    0.8975836085
H        2.2442281209   -2.4796921900    4.4420179544
H        0.3817319468   -4.2612471806    6.2594453458
H        0.8373674093   -6.2340082943    4.7783707880
H       -1.8260813880   -2.4031869650    3.0679117804
H        0.5883310245    0.4875554721    3.1965660176
H        0.0765031612    0.3429982225    5.4199059666
29   
Generated by ForceBalance from scan.xyz: Frame 4 of 15
C        2.5847851388   -3.4350928043    1.2909549939
C        1.8073224920   -2.4598446340    0.6560688979
C        2.7381185720   -3.4050239565    2.6814469538
C        1.1712975489   -1.4751582691    1.4109433122
C        2.0982218259   -2.4249914228    3.4389488695
C        0.0144626032   -4.3245521594    5.1665477561
C        0.2604641685   -5.4159830875    4.3367781220
C       -1.2269587776   -3.2510820702    3.3671671154
C        1.2882190430   -1.4597054698    2.8135285382
C       -0.7102164899   -3.2472494476    4.6600771432
C       -0.1930939038   -5.4116181287    3.0138323728
C       -0.9511852380   -4.3316267797    2.5297047241
C        0.5491190935   -0.4630326373    3.6015159598
C        0.1777163589   -0.5370859577    4.9009296734
O       -2.2381133220   -1.2228302339    5.4599057257
O       -0.4149755762   -2.0864540301    7.0204377606
S       -0.8888016516   -1.7705383933    5.6650201126
Cl       0.2148433643   -6.7556243922    1.9865015438
Cl      -1.5389994524   -4.2932744702    0.8913127764
H        3.0746215489   -4.2081849941    0.7055554195
H        1.6869762596   -2.4766506129   -0.4234222572
H        3.3569451938   -4.1487817114    3.1761320700
H        0.5483455213   -0.7325608406    0.9178075257
H        2.2329256887   -2.3880349076    4.5155307629
H        0.3894306678   -4.2937595033    6.1843075459
H        0.8288352451   -6.2669052598    4.6977085813
H       -1.8107298522   -2.4134508926    3.0011159743
H        0.6131887701    0.5506554742    3.2000077001
H       -0.1140325581    0.3899944847    5.3969380073
29   
Generated by ForceBalance from scan.xyz: Frame 5 of 15
C        3.1542522097   -3.5430829284    1.9390336419
C        2.1126592774   -3.0863909111    1.1220305669
C        3.3187795833   -3.0090916719    3.2211652020
C        1.2439052001   -2.0989708760    1.5853121555
C        2.4349275041   -2.0398467712    3.6984126819
C        0.2578148651   -4.2147490908    4.5352487393
C        0.1980757084   -5.1850197165    3.5372682469
C       -1.6979617149   -3.1255556184    3.5796249128
C        1.3863902772   -1.5765131221    2.8832335265
C       -0.6790285279   -3.1850654456    4.5274599259
C       -0.7868187289   -5.1178551481    2.5484415852
C       -1.7485709702   -4.0925093361    2.5762298972
C        0.4412454624   -0.5694488990    3.3935683275
C        0.0186328725   -0.4506164304    4.6670491825
O       -1.8550937393   -1.4286072298    6.1413595406
O        0.5196104112   -2.2183307013    6.6801133478
S       -0.5093428163   -1.8299401467    5.7032337407
Cl      -0.7799174300   -6.3119297345    1.2812285566
Cl      -2.9957776950   -3.9810161503    1.3619030032
H        3.8372781090   -4.3053266087    1.5736277475
H        1.9770368692   -3.5026327232    0.1276623743
H        4.1323758591   -3.3521718427    3.8547319275
H        0.4300625818   -1.7522405904    0.9530560957
H        2.5551102791   -1.6319662202    4.6974897931
H        1.0338145385   -4.2353395372    5.2917631313
H        0.9313391214   -5.9836591219    3.5017809493
H       -2.4308677905   -2.3258441903    3.6031716964
H        0.2765566422    0.2979440133    2.7518750308
H       -0.5271126329    0.4346515095    4.9866828116
29   
Generated by ForceBalance from scan.xyz: Frame 6 of 15
C        3.1402327023   -3.5565322000    1.9949019958
C        2.0973768679   -3.1042335742    1.1772237968
C        3.3264668741   -2.9932647075    3.2610397526
C        1.2511330012   -2.0893276941    1.6231318113
C        2.4618325297   -1.9986177232    3.7230739652
C        0.2743393112   -4.2218162549    4.4644637906
C        0.1870055161   -5.1996402525    3.4763902537
C       -1.7018179123   -3.1348374147    3.5502289293
C        1.4135482124   -1.5401628956    2.9068730432
C       -0.6599110986   -3.1897209067    4.4729487522
C       -0.8221700915   -5.1386884974    2.5117489495
C       -1.7786312401   -4.1092603547    2.5553741108
C        0.4914195913   -0.4965766593    3.3940130478
C       -0.0667401049   -0.4280106557    4.6129763685
O       -1.8052913625   -1.5099944937    6.1877147844
O        0.6345517567   -2.1935372983    6.5543048393
S       -0.4748764917   -1.8412608197    5.6546260127
Cl      -0.8516513201   -6.3450065303    1.2559969369
Cl      -3.0563321652   -4.0039150837    1.3726483284
H        3.8060284502   -4.3399678210    1.6426956702
H        1.9438077604   -3.5435403014    0.1954274527
H        4.1395088687   -3.3346225130    3.8962426722
H        0.4389235978   -1.7427082129    0.9888298896
H        2.5922181653   -1.5766126338    4.7145601117
H        1.0692094047   -4.2381420586    5.2010065664
H        0.9166069713   -6.0010467668    3.4300801752
H       -2.4342286677   -2.3350858645    3.5853235987
H        0.3753646722    0.3803036610    2.7553717478
H       -0.6467676543    0.4313033114    4.9397547496
29   
Generated by ForceBalance from scan.xyz: Frame 7 of 15
C        3.1081252212   -3.5717424615    2.0202418587
C        2.0618448125   -3.1018762335    1.2171628594
C        3.3271769714   -3.0055631778    3.2795028334
C        1.2461743269   -2.0646979021    1.6697561310
C        2.4914039988   -1.9894639666    3.7496592250
C        0.2823544165   -4.2312189047    4.4477545136
C        0.1920763917   -5.2166383650    3.4677081260
C       -1.7042982126   -3.1593777388    3.5389241952
C        1.4412729649   -1.5138681593    2.9476182170
C       -0.6566810816   -3.2034970721    4.4559298643
C       -0.8237436416   -5.1674434199    2.5092769361
C       -1.7831945291   -4.1409250416    2.5510681976
C        0.5488647022   -0.4412576017    3.4356859218
C       -0.1477296657   -0.4286973687    4.5801756972
O       -1.7952492606   -1.5688086172    6.2218007048
O        0.6815160355   -2.1598357720    6.4859660219
S       -0.4769931785   -1.8506471920    5.6335721607
Cl      -0.8574000609   -6.3844328733    1.2637240323
Cl      -3.0687504042   -4.0488115558    1.3758021017
H        3.7498554491   -4.3725432480    1.6624538006
H        1.8817932590   -3.5438090968    0.2410367050
H        4.1416199304   -3.3621088130    3.9045080571
H        0.4328941445   -1.7024913112    1.0457092468
H        2.6417201653   -1.5701387142    4.7391958940
H        1.0832135660   -4.2380499448    5.1778618620
H        0.9245044935   -6.0155246262    3.4227174446
H       -2.4409672764   -2.3634197473    3.5721287819
H        0.4852841227    0.4569931402    2.8199482701
H       -0.7492639951    0.4187755116    4.8976976879
29   
Generated by ForceBalance from scan.xyz: Frame 8 of 15
C        1.9744202529   -3.0622181586    0.9068075076
C        1.1045022138   -1.9688609840    0.8825307930
C        2.6769949454   -3.3662619582    2.0782426901
C        0.9158250488   -1.1931033455    2.0295467377
C        2.5144182876   -2.5757391490    3.2169474602
C       -0.1650575031   -3.9161753781    5.3547690140
C        0.2927870988   -5.1833792942    5.0063153841
C       -0.9720537299   -3.5918391964    3.0818341415
C        1.6157291648   -1.4970033359    3.2072990660
C       -0.7716248772   -3.1272081640    4.3763362882
C        0.1321393599   -5.6568635477    3.6981886601
C       -0.5178707736   -4.8665226167    2.7379434303
C        1.4060280251   -0.7056417971    4.4417799888
C        0.2770703249   -0.6177839738    5.1553639018
O       -1.8989690744   -0.8643387408    3.5887168139
O       -1.9938206914   -1.4810251698    6.0712482078
S       -1.2765517802   -1.4461422823    4.7877277856
Cl       0.7609951453   -7.2309149596    3.2967456003
Cl      -0.7614117346   -5.4305911562    1.1077503657
H        2.0976963849   -3.6811056147    0.0227870919
H        0.5541818409   -1.7302378394   -0.0234504576
H        3.3473236553   -4.2209319261    2.1054115951
H        0.2112330965   -0.3678829138    2.0234610699
H        3.0556488125   -2.8175462352    4.1282940100
H       -0.0446872990   -3.5459728751    6.3679253291
H        0.7805325242   -5.8159314392    5.7407998466
H       -1.4550035047   -2.9604107905    2.3453493159
H        2.2751940138   -0.1850413486    4.8467072876
H        0.1898556263   -0.0283144938    6.0641796044
29   
Generated by ForceBalance from scan.xyz: Frame 9 of 15
C        1.9786459800   -3.0483205366    0.8683418643
C        1.0957449324   -1.9650633241    0.8924120040
C        2.7035302509   -3.3810732626    2.0183909722
C        0.9132553494   -1.2308187852    2.0667056684
C        2.5476866084   -2.6302586413    3.1840552520
C       -0.1747800827   -3.8927000756    5.3669048894
C        0.2928017781   -5.1601883027    5.0330222964
C       -0.9802503906   -3.5987244030    3.0890975086
C        1.6336162947   -1.5642902764    3.2254498053
C       -0.7847041006   -3.1187750353    4.3787536587
C        0.1401660595   -5.6476835862    3.7289905874
C       -0.5133945235   -4.8725258387    2.7590006161
C        1.4256990953   -0.8172853644    4.4828525855
C        0.2570139186   -0.5880982184    5.0975551352
O       -1.9588264281   -0.8854144108    3.5736731903
O       -1.9816009202   -1.4534259433    6.0693686135
S       -1.2969987932   -1.4340557103    4.7674585603
Cl       0.7833212500   -7.2201960085    3.3450386743
Cl      -0.7448733500   -5.4534645621    1.1329192145
H        2.0972433935   -3.6352737482   -0.0378895230
H        0.5318487141   -1.7017843784    0.0017432890
H        3.3859014841   -4.2264817069    2.0068154105
H        0.2029735908   -0.4109558525    2.0949555021
H        3.1063978234   -2.8943765548    4.0786289387
H       -0.0588970191   -3.5096722696    6.3757380507
H        0.7828780536   -5.7816933275    5.7753387372
H       -1.4679426179   -2.9794139599    2.3455600765
H        2.3093698467   -0.3674081891    4.9377073056
H        0.1701986270    0.0105345170    6.0003110097
29   
Generated by ForceBalance from scan.xyz: Frame 10 of 15
C        2.0120229408   -3.0284687260    0.8449888599
C        1.1071986140   -1.9640054887    0.8969660589
C        2.7464743562   -3.3748473946    1.9850083068
C        0.9124634572   -1.2629599272    2.0886971479
C        2.5762198904   -2.6578989266    3.1694131678
C       -0.1897229193   -3.8673690923    5.3766324010
C        0.2919347587   -5.1294138079    5.0421166900
C       -1.0003252757   -3.5833380314    3.0999001173
C        1.6419007246   -1.6102842881    3.2391436890
C       -0.8091950736   -3.1004759253    4.3891801972
C        0.1467720829   -5.6180257289    3.7375756905
C       -0.5165874505   -4.8505930819    2.7681740740
C        1.4140846867   -0.9000541771    4.5103590949
C        0.2256777130   -0.5425296280    5.0241797964
O       -2.0606281658   -0.9024245408    3.6050590168
O       -1.9455598072   -1.4253065730    6.1087555804
S       -1.3288064744   -1.4169174453    4.7729807657
Cl       0.8110383717   -7.1813686621    3.3525740436
Cl      -0.7386768514   -5.4316753287    1.1409285148
H        2.1418501888   -3.5889432382   -0.0763867952
H        0.5381136936   -1.6891666714    0.0131313897
H        3.4465669439   -4.2049821556    1.9505810937
H        0.1918778604   -0.4525864452    2.1357317438
H        3.1405793662   -2.9339022031    4.0569004813
H       -0.0780168297   -3.4817110067    6.3848656977
H        0.7888739201   -5.7455768438    5.7843106263
H       -1.4981272655   -2.9709898430    2.3572702238
H        2.2963952998   -0.4937861291    5.0072927582
H        0.1479574076    0.0788362232    5.9127959767
29   
Generated by ForceBalance from scan.xyz: Frame 11 of 15
C        2.0612427837   -3.0359840448    0.8330564636
C        1.1317294659   -1.9930438119    0.8933126685
C        2.7941252739   -3.3833162640    1.9738613997
C        0.9126604010   -1.3149395340    2.0932799742
C        2.5952949115   -2.6912234407    3.1683564966
C       -0.2119522534   -3.8583343317    5.3768644557
C        0.2845780712   -5.1083609984    5.0196786750
C       -1.0534023903   -3.5556038119    3.1134352584
C        1.6397857365   -1.6628277964    3.2464335943
C       -0.8551155826   -3.0881814397    4.4073694977
C        0.1348312727   -5.5791207100    3.7090726456
C       -0.5511446454   -4.8091788961    2.7575679646
C        1.3773105948   -0.9788394459    4.5233383938
C        0.1853130969   -0.5072739618    4.9364785143
O       -2.2096797792   -0.9234501189    3.7037911469
O       -1.8739968943   -1.4098779624    6.1947259510
S       -1.3724491886   -1.4097516955    4.8113919302
Cl       0.8226578128   -7.1240540939    3.2934900557
Cl      -0.7761353068   -5.3674351936    1.1230248270
H        2.2126527591   -3.5775442576   -0.0963372814
H        0.5653121690   -1.7164800893    0.0083252719
H        3.5135593339   -4.1964059798    1.9322085604
H        0.1815143257   -0.5138017676    2.1445099065
H        3.1553599677   -2.9712693755    4.0573498002
H       -0.0944788171   -3.4824994751    6.3881255921
H        0.7989341041   -5.7273553799    5.7475288296
H       -1.5709993624   -2.9419126253    2.3854637477
H        2.2570459838   -0.5975874838    5.0449291599
H        0.1096936401    0.1504415285    5.7997713526
29   
Generated by ForceBalance from scan.xyz: Frame 12 of 15
C        2.1813958453   -3.1059468059    0.8686951164
C        1.1914290083   -2.1183283241    0.8951134208
C        2.9170341888   -3.3870167564    2.0259798255
C        0.9175589925   -1.4307221598    2.0774791088
C        2.6583002703   -2.6876805054    3.2045522987
C       -0.1955192966   -3.8547313771    5.3657005725
C        0.3132329687   -5.0772228902    4.9376709829
C       -1.1664695073   -3.4982803482    3.1627078285
C        1.6462131362   -1.7119363057    3.2490636939
C       -0.9120248382   -3.0709570511    4.4607589113
C        0.1085458605   -5.5044318056    3.6195531801
C       -0.6488258300   -4.7227597623    2.7340474493
C        1.3243839411   -1.0170007913    4.5043598840
C        0.1282838398   -0.4729685229    4.8271813230
O       -2.4210217751   -0.9444511008    3.9740760997
O       -1.6934490045   -1.4128227689    6.3807876322
S       -1.4112127850   -1.4088173065    4.9367836589
Cl       0.8200771753   -7.0095987393    3.1105498520
Cl      -0.9376590188   -5.2240510606    1.0915335355
H        2.3797696974   -3.6532468216   -0.0484926902
H        0.6242429337   -1.8918446904   -0.0034229391
H        3.6846703256   -4.1557492209    2.0096342412
H        0.1516959003   -0.6609210382    2.1008890632
H        3.2186363974   -2.9194922530    4.1072411317
H       -0.0319498287   -3.5069463889    6.3805465498
H        0.8835395472   -5.7058513888    5.6137037605
H       -1.7394252358   -2.8755661752    2.4850826991
H        2.1849128774   -0.5951044583    5.0287789689
H        0.0891842954    0.2533098860    5.6383830200
29   
Generated by ForceBalance from scan.xyz: Frame 13 of 15
C        2.6649993177   -3.3817843336    1.2431814394
C        1.4084454327   -2.7716953553    1.1547941693
C        3.4813816946   -3.1354621081    2.3538875815
C        0.9592228598   -1.9396179009    2.1782573812
C        3.0309481848   -2.3070875222    3.3810403583
C       -0.0494014829   -3.8563120130    5.0396436131
C        0.3361508255   -5.0058642766    4.3562169575
C       -1.7088176911   -3.3987441707    3.3172579454
C        1.7560300269   -1.7111318615    3.3170730880
C       -1.0511509485   -3.0538538229    4.4938377497
C       -0.2800374944   -5.3476501122    3.1471153001
C       -1.3196425205   -4.5533462223    2.6365515084
C        1.2673555624   -0.8976570741    4.4350585254
C        0.0007845896   -0.4420834512    4.6481393599
O       -2.6538981368   -0.9400343409    4.6794886415
O       -1.1750888851   -1.5280734449    6.6697513372
S       -1.3825302856   -1.4441575034    5.2166551981
Cl       0.2808832674   -6.7565150817    2.2937041543
Cl      -2.1045519841   -4.9425543658    1.1302699216
H        3.0115021948   -4.0324425713    0.4449943428
H        0.7804123005   -2.9424997154    0.2847286485
H        4.4637529736   -3.5953054803    2.4197808920
H        0.0022130341   -1.4352033259    2.0928213789
H        3.6578566942   -2.1343994508    4.2530111386
H        0.4328586261   -3.5729452279    5.9692956758
H        1.1299431971   -5.6371510959    4.7413890999
H       -2.4899727708   -2.7587016946    2.9200978379
H        2.0439121364   -0.2527638230    4.8555233817
H       -0.0732418116    0.4402502921    5.2886977095
29   
Generated by ForceBalance from scan.xyz: Frame 14 of 15
C        3.0373924388   -3.2167183054    1.1906731319
C        1.6723883844   -2.9003306692    1.1512113817
C        3.8217230463   -2.7848140077    2.2664640697
C        1.0937765475   -2.1682657204    2.1832700368
C        3.2416902633   -2.0584453265    3.3064400488
C       -0.1947787611   -3.9227492275    5.0442785474
C        0.0691113999   -5.1049904425    4.3576390360
C       -1.9258121175   -3.3761094765    3.4195625759
C        1.8688635228   -1.7415967136    3.2828036226
C       -1.1785156078   -3.0649881409    4.5520798223
C       -0.6462970254   -5.4216220929    3.1974383500
C       -1.6570117972   -4.5625075514    2.7342212680
C        1.2769913305   -1.0028857039    4.3975854594
C       -0.0020855130   -0.5246148487    4.5430945662
O       -2.6538740963   -0.8643693219    4.8613781484
O       -1.0248588845   -1.5113731003    6.7061204077
S       -1.3654795570   -1.4326158144    5.2783610517
Cl      -0.2519443977   -6.8890348352    2.3482199318
Cl      -2.5703284941   -4.9254123067    1.2946575184
H        3.4888030527   -3.7823403234    0.3800314789
H        1.0645494879   -3.2173097401    0.3080963640
H        4.8826494551   -3.0180447223    2.2947679270
H        0.0475606401   -1.8869115489    2.1314427695
H        3.8498944401   -1.7361222770    4.1486584184
H        0.3596302556   -3.6626060789    5.9398794461
H        0.8388399343   -5.7856964986    4.7060001869
H       -2.6912890322   -2.6935211484    3.0642167438
H        2.0183432298   -0.3314535753    4.8426672646
H       -0.0416183211    0.3931562697    5.1395533261
29   
Generated by ForceBalance from scan.xyz: Frame 15 of 15
C        3.4759667110   -2.9257230264    1.0911599524
C        2.0771679898   -3.0248226330    1.1450790299
C        4.1677555591   -2.2568331065    2.1064530948
C        1.3777137271   -2.4598925457    2.2055030222
C        3.4686628672   -1.6921636389    3.1738143858
C       -0.4353195214   -4.0528552407    5.0656463178
C       -0.3560974223   -5.2798280521    4.4108027345
C       -2.1732792650   -3.3460345537    3.5105368125
C        2.0632571542   -1.7704198418    3.2319095748
C       -1.3371525958   -3.0975188155    4.5963362336
C       -1.1729148937   -5.5440878802    3.3057280941
C       -2.0912534380   -4.5783599587    2.8580281222
C        1.3546585436   -1.1353721192    4.3402092845
C        0.0527815110   -0.6746322947    4.4313703258
O       -2.5627281788   -0.7519606758    4.9704706751
O       -0.8729689456   -1.5430046767    6.6982539058
S       -1.3104751745   -1.4436780373    5.2988724073
Cl      -1.0240834074   -7.0845186664    2.5076903841
Cl      -3.1300712815   -4.8752733415    1.4905193460
H        4.0202555615   -3.3599576662    0.2568400152
H        1.5380790072   -3.5382820759    0.3534861878
H        5.2504930774   -2.1755959649    2.0656983535
H        0.2936064447   -2.5154920406    2.2344342665
H        4.0085527751   -1.1739996166    3.9629379293
H        0.1921520693   -3.8375115819    5.9241934809
H        0.3410452048   -6.0405550475    4.7464325059
H       -2.8725167398   -2.5879316623    3.1723939584
H        2.0388898233   -0.4207829181    4.8102190623
H        0.0356952271    0.2774901263    4.9784560143
