32

C     -2.77106    0.25063    0.64017
C      2.16986   -3.70177   -5.13314
C      3.49586   -3.57819   -5.57405
C      1.69538   -2.92217   -4.08294
C      3.89235   -1.88962   -3.91014
C     -1.36950    0.26959    0.35353
C      4.37441   -2.66813   -4.96978
C     -0.82758   -0.47048   -0.68752
C      2.56703   -2.00522   -3.46619
C      0.58097   -0.43621   -0.96890
C     -0.54789    1.10575    1.21163
C      1.39021    0.35867   -0.14897
C      5.79425   -2.51012   -5.46362
C     -1.70405   -1.33277   -1.55630
N     -3.91573    0.22345    0.85877
N      2.21731   -1.15416   -2.38709
N      1.00367   -1.23721   -2.03521
N      0.83002    1.06780    0.86642
O     -0.90050    1.80380    2.15403
O      2.71818    0.44221   -0.31472
H      1.50961   -4.41820   -5.61558
H      3.84857   -4.19997   -6.39410
H      0.67411   -3.01060   -3.72918
H      4.53792   -1.17475   -3.40569
H      5.85611   -1.72732   -6.22914
H      6.47061   -2.22826   -4.65131
H      6.16699   -3.43643   -5.91033
H     -1.61471   -1.02780   -2.60247
H     -2.74833   -1.27330   -1.25123
H     -1.37163   -2.37333   -1.50750
H      1.40064    1.66042    1.46533
H      3.12209    0.98100    0.38844
