33

C      2.60266   -2.98107    6.59401
C     -0.25968    2.90192    7.48980
C      0.83990    2.65244    6.65909
C     -0.78156    1.87002    8.27731
C      1.40186    1.37735    6.59863
C     -0.21225    0.59646    8.22834
C      1.00314   -0.00320    0.66414
C      0.45609    0.14774    1.93608
C      2.81180   -1.41436    1.47666
C      0.87083    0.32361    7.37042
C      2.17039   -0.77426    0.41774
C      2.28329   -1.27855    2.77144
C      1.11643   -0.50100    2.98480
C      1.88279   -1.37028    4.88774
C      1.45374   -1.02492    7.36355
C      1.95954   -1.72292    6.31018
C      2.69560   -0.88956   -0.99608
N      3.10581   -3.99530    6.86796
N      2.72735   -1.81012    3.97160
N      0.87776   -0.58755    4.34614
H     -0.69569    3.89627    7.53385
H      1.26756    3.45590    6.06541
H     -1.62576    2.05902    8.93482
H      2.26866    1.19905    5.96987
H     -0.61539   -0.20120    8.84786
H      0.51766    0.48763   -0.17654
H     -0.43959    0.74208    2.09557
H      3.70477   -2.01272    1.31763
H      1.49233   -1.52213    8.33038
H      2.93594    0.09540   -1.41236
H      3.60211   -1.49925   -1.03568
H      1.95370   -1.35013   -1.65847
H      0.13720   -0.13101    4.86129
