30

C     -3.50882   -3.69887    0.31180
C     -3.15299   -2.35560    0.19467
C     -2.55968   -4.71242    0.15095
C     -0.85188   -3.01230   -0.26859
C      2.97379    3.31100   -1.14464
C      1.35972    1.46373   -0.99220
C     -1.82206   -2.01082   -0.09486
C      1.71884    2.77480   -0.72967
C     -1.24296   -4.34194   -0.13733
C      3.84837    2.49602   -1.78762
C      2.31916    0.59514   -1.66600
C      0.03013    0.96378   -0.65255
C      5.20683    2.87847   -2.27959
N     -0.21908   -0.28676   -0.45492
N     -1.48117   -0.66011   -0.20317
O      2.19293   -0.57018   -1.96077
O      3.54900    1.20365   -2.03871
O      0.92140    3.65033   -0.05969
Cl    -0.03396   -5.60012   -0.34989
H     -4.53917   -3.96186    0.53522
H     -3.90153   -1.57774    0.32970
H     -2.83009   -5.75859    0.24410
H      0.16923   -2.74039   -0.50791
H      3.21979    4.34235   -0.92493
H     -0.79140    1.69929   -0.62730
H      5.97001    2.25442   -1.80291
H      5.41646    3.92770   -2.06417
H      5.27676    2.71237   -3.35973
H     -2.23348    0.02897   -0.21493
H      0.17385    3.17495    0.33902
