37

C     -0.69794   -1.93752   -1.96450
C      1.55214    4.17871   -0.60457
C      1.90643    4.59566   -1.89367
C      1.28060    2.83355   -0.37425
C      1.99387    3.67948   -2.94541
C     -0.26388   -2.20087   -0.63408
C      1.36047    1.88732   -1.41139
C     -0.50553   -3.46319    0.01888
C      1.72573    2.32386   -2.71082
C     -0.04882   -3.48050    1.31056
C      0.37596   -1.26708    0.18475
C      1.06401    0.47893   -1.17759
C     -1.17633   -4.65343   -0.61941
C     -0.14381   -4.65429    2.24628
C     -1.59176   -5.68924    0.43754
C     -0.46828   -5.93385    1.45502
C      2.06520    1.75123   -5.01622
N     -1.06931   -1.76004   -3.05766
N      0.73622    0.04433   -0.00317
O      1.79396    1.35994   -3.67192
S      0.65356   -1.95082    1.77092
H      1.48646    4.89921    0.20546
H      2.11750    5.64423   -2.08762
H      0.99690    2.47834    0.61147
H      2.27092    4.02761   -3.93357
H      1.14365   -0.18431   -2.04063
H     -2.04624   -4.32533   -1.19887
H     -0.48696   -5.10984   -1.34245
H      0.79109   -4.78007    2.80437
H     -0.92794   -4.46929    2.99323
H     -2.48359   -5.33002    0.96676
H     -1.87012   -6.62696   -0.05487
H      0.43250   -6.26941    0.92598
H     -0.74806   -6.73212    2.15071
H      2.02237    0.83365   -5.60328
H      3.06251    2.19789   -5.10666
H      1.30907    2.45478   -5.38319
