37

C      0.64964    2.68845    0.43075
C      1.26312    1.50379    0.02920
C     -0.65385    2.62283    0.92940
C     -0.67501   -2.48194   -3.19842
C      0.54765    0.31006    0.12067
C     -0.28433   -1.28309   -2.69443
C     -0.75654    0.34986    0.64830
C     -1.17809   -0.12928   -2.75133
C     -2.86362   -1.64387   -3.79716
C      0.78115   -2.09839    0.52106
C     -0.69467   -2.48217    0.45734
C     -2.31499   -3.97388   -4.29226
C     -3.40921    0.69793   -3.30578
N     -1.33975    1.48053    1.05131
N     -1.90799   -2.67614   -3.73773
N     -2.45033   -0.41763   -3.29595
N      1.13050   -0.92617   -0.29864
O     -0.91517    1.00119   -2.36994
O     -3.97159   -1.85617   -4.26940
O      1.92022   -2.51912   -2.08702
O      2.02772   -0.00035   -2.49206
S     -1.81930   -1.07135    0.81453
S      1.34662   -1.17345   -1.96707
H      1.16543    3.64083    0.35813
H      2.26642    1.48748   -0.38236
H     -1.17290    3.52439    1.24974
H     -0.00430   -3.33479   -3.17866
H      1.06368   -1.84233    1.54557
H      1.40016   -2.93548    0.19642
H     -0.94381   -2.89123   -0.52322
H     -0.90466   -3.24977    1.20758
H     -3.19247   -4.34774   -3.76188
H     -1.48568   -4.67252   -4.18003
H     -2.56751   -3.86546   -5.34852
H     -3.01842    1.50912   -3.92297
H     -3.53741    1.06564   -2.28605
H     -4.35132    0.33244   -3.70615
