20

C      7.20426   -1.30857    0.22588
C      2.27167   -0.43609    0.23188
C      1.01960   -0.00608    0.69008
C      1.40951   -1.12606    2.80671
C      3.10447   -1.20875    1.04770
C      2.64381   -1.54037    2.33343
C      0.59796   -0.35205    1.97031
C      6.24565   -1.95545   -0.68044
C      4.84409   -1.35321   -0.58085
N      7.96613   -0.77957    0.92630
O      4.33894   -1.68185    0.70780
F      3.43580   -2.29012    3.12819
Cl    -0.96796    0.18282    2.55202
H      2.58381   -0.15710   -0.76788
H      0.38277    0.59399    0.04888
H      1.09849   -1.40596    3.80749
H      6.61197   -1.84918   -1.70677
H      6.20276   -3.02387   -0.44888
H      4.20772   -1.78746   -1.36285
H      4.88229   -0.26579   -0.71582
