29

C     -0.90620   -3.68310    4.92033
C     -4.43439    1.13008    1.78941
C      0.15572   -4.15671    4.10927
C     -2.52245   -0.38863    1.69812
C     -3.64941   -0.87345    2.35171
C      0.61471   -3.66653    2.90617
C      1.83461   -5.37366    3.52641
C     -1.22743   -1.02936    1.48782
C     -3.81540   -2.22202    2.98115
C      2.94429   -6.34882    3.36821
C     -0.32271   -0.58179    0.35959
N     -1.77022   -3.29940    5.60418
N     -4.71344    0.00577    2.38597
N      0.96400   -5.25253    4.46778
N     -0.90917   -1.99249    2.29757
N      0.27706   -2.63543    2.07891
O      1.67961   -4.41897    2.51478
S     -2.83951    1.23398    1.11085
H     -5.12754    1.96050    1.70414
H     -3.39732   -2.24138    3.99229
H     -4.87967   -2.46066    3.03856
H     -3.28755   -2.99325    2.41540
H      2.82576   -6.93482    2.45092
H      3.91174   -5.83835    3.31950
H      2.93886   -7.02249    4.22557
H      0.67238   -0.32058    0.73865
H     -0.20330   -1.38054   -0.38476
H     -0.71887    0.28319   -0.17126
H      0.77628   -2.56868    1.19535
