40

C      0.93580    0.12467    2.03323
C      0.23518   -0.24924    0.86580
C      0.68410   -0.49823    3.25384
C     -0.73092   -1.25555    0.89415
C     -0.18200   -6.48376    8.74809
C     -0.28647   -1.51477    3.31327
C     -0.79618   -2.35904    4.36260
C     -0.98062   -1.87898    2.12081
C     -0.68358   -5.80114    7.60173
C     -1.75028   -3.17718    3.80697
C     -0.80982   -7.69687    8.71674
C     -0.18862   -4.45194    7.15650
C     -0.40465   -2.43412    5.81173
C     -2.54257   -4.19832    4.55962
C     -1.99461   -9.73287    9.80583
C     -0.85157  -10.27526    8.99290
C     -2.39528   -3.88093    6.05734
C     -0.75327   -8.87600    9.58861
N     -1.53839   -6.54290    6.92192
N     -1.86549   -2.89588    2.45211
N     -0.99187   -3.64445    6.40716
O      0.95793   -4.13737    7.49286
O     -1.62456   -7.75085    7.62883
H      1.68396    0.91072    1.97422
H      0.45319    0.25404   -0.07237
H      1.23190   -0.20335    4.14564
H     -1.26632   -1.54227   -0.00800
H      0.54760   -6.11468    9.45315
H      0.67704   -2.49492    5.93785
H     -0.74724   -1.54945    6.36898
H     -3.60468   -4.16610    4.28505
H     -2.18264   -5.21598    4.36618
H     -2.89384   -9.43392    9.27727
H     -2.15376  -10.12221   10.80669
H     -0.21734  -11.04028    9.42995
H     -0.98118  -10.34025    7.91760
H     -2.94690   -2.96077    6.28710
H     -2.80183   -4.68521    6.66280
H     -0.08854   -8.74935   10.43679
H     -2.49758   -3.35560    1.81268
