18

C      1.08054   -0.49050    1.38093
C     -0.03434   -0.32595    2.20425
C      2.39496   -1.19914    3.28973
C      1.27648   -1.03102    4.09833
C      2.30246   -0.91513    1.92111
C      0.05704   -0.59244    3.57307
C      4.56541    0.46861    0.88053
C      3.97385    1.58622    1.71068
O      5.57315    0.57270    0.21728
F      1.37647   -1.29899    5.41487
S      3.72670   -1.15179    0.86214
Cl    -1.32180   -0.39310    4.61617
H      1.00198   -0.28719    0.31755
H     -0.98132    0.00625    1.79062
H      3.32233   -1.54544    3.73506
H      2.95630    1.81569    1.38307
H      4.60859    2.46659    1.59863
H      3.91808    1.29832    2.76397
