15

C      1.40784    0.11972    1.31585
C      0.05992   -0.02949    0.96971
C      1.98013   -0.68322    2.30703
C     -0.69752   -0.97164    1.67689
C      1.11508   -1.59541    2.91956
C     -2.97690   -0.18212    0.20066
N     -0.15278   -1.73756    2.63775
F     -2.82360    1.11368    0.55433
F     -4.28732   -0.40615   -0.00645
F     -2.33516   -0.34211   -0.98023
S     -2.43854   -1.35698    1.48375
I      2.10839   -3.38941    4.03174
H      2.01906    0.85037    0.79242
H     -0.36508    0.56118    0.16837
H      3.02026   -0.59014    2.59589
