30

C     -3.51147   -1.63617   -3.04101
C     -2.51555   -0.77611   -2.57821
C     -4.81949   -1.57728   -2.55092
C     -4.14008    0.25182   -1.08885
C      3.57783    1.02377   -2.54652
C      1.66600    1.79512   -1.22688
C     -2.82850    0.17804   -1.59405
C      2.18548    0.98059   -2.23115
C     -5.10796   -0.62273   -1.57322
C      4.38375    1.86853   -1.85309
C      2.54248    2.68908   -0.49894
C      0.26519    1.80022   -0.86236
C      5.85469    2.03843   -2.05367
N     -0.58247    1.02032   -1.46105
N     -1.88750    1.07883   -1.10261
O      2.22851    3.45024    0.39570
O      3.90245    2.66973   -0.87197
O      1.42521    0.13671   -2.93610
Cl    -6.73929   -0.51512   -0.92852
H     -3.26292   -2.37184   -3.80117
H     -1.51008   -0.84471   -2.97386
H     -5.59066   -2.24834   -2.91277
H     -4.40073    0.98399   -0.32946
H      3.97336    0.38778   -3.32886
H     -0.03794    2.48867   -0.06839
H      6.08192    3.07734   -2.31489
H      6.21609    1.38238   -2.84729
H      6.39047    1.80975   -1.12641
H     -2.14329    1.66265   -0.30959
H      0.49041    0.22573   -2.60030
