40

C     -1.48985    4.27885    2.64713
C     -8.18401    2.46421    4.08067
C     -7.24392    4.42777    5.09868
C     -6.97341    2.21414    3.43380
C     -6.02549    4.19675    4.46273
C     -8.34406    3.57156    4.92587
C     -5.88907    3.08157    3.62410
C     -2.29742    2.13552    1.58746
C     -1.50664    0.58858    0.25805
C     -2.51580    3.29806    2.44663
C     -0.58658   -0.17904   -0.63202
C     -0.00822    0.65832   -1.79151
C      1.09452    1.64625   -1.38320
C      0.68135    2.75595   -0.40485
C      0.22469    2.26213    0.97238
C     -9.64579    3.82098    5.65136
N     -0.64389    5.07075    2.78852
N     -3.27952    1.28462    1.28762
N     -2.78270    0.31878    0.45025
N     -3.64569    3.57775    3.07229
N     -1.14039    1.71752    0.95513
N     -4.68916    2.79384    2.95039
H     -9.01790    1.78444    3.92115
H     -7.34205    5.29744    5.74498
H     -6.86919    1.35159    2.77954
H     -5.18454    4.86661    4.60259
H      0.23491   -0.61154   -0.04481
H     -1.17232   -1.01370   -1.02425
H      0.40834   -0.03387   -2.53175
H     -0.82737    1.19155   -2.28891
H      1.92850    1.08279   -0.94192
H      1.49243    2.11680   -2.28967
H      1.54144    3.41509   -0.24255
H     -0.11131    3.37878   -0.83595
H      0.89310    1.47585    1.34091
H      0.25768    3.07397    1.69179
H     -9.62600    3.38472    6.65775
H     -9.84146    4.89179    5.76411
H    -10.49193    3.37735    5.11839
H     -4.61817    1.96886    2.33098
