36

C      0.30828    7.89157    1.98180
C      0.26614    2.46236   -0.73370
C     -0.26165    1.16112   -0.54461
C     -0.57106    3.52695   -1.00304
C     -1.62133    0.94370   -0.63185
C     -4.24710    4.06129   -1.43876
C     -0.76542    7.28603    1.28667
C     -1.97647    3.33305   -1.09488
C     -2.91242    4.37782   -1.36768
C     -2.50867    2.01742   -0.90775
C     -4.68576    2.71812   -1.24067
C     -2.06705    6.92324    1.76213
C     -0.76404    6.94184   -0.07007
C     -6.15766    2.39534   -1.31204
C     -2.60498    7.08169    3.14809
C     -2.46523    5.80964   -1.56607
N      1.21121    8.39341    2.52836
N     -3.84600    1.73376   -0.98346
N     -2.79562    6.40947    0.78203
N     -1.98326    6.41320   -0.32799
N      0.26231    6.99422   -1.01218
H      1.33874    2.62337   -0.66403
H      0.41000    0.33356   -0.33143
H     -0.14211    4.51387   -1.14262
H     -2.05304   -0.04320   -0.49405
H     -4.98531    4.83704   -1.62726
H     -6.57731    2.68544   -2.28216
H     -6.31121    1.32537   -1.16414
H     -6.71316    2.94292   -0.54181
H     -2.57947    8.13038    3.46188
H     -3.63578    6.72443    3.18791
H     -2.00496    6.51140    3.86475
H     -1.65020    5.86141   -2.29192
H     -3.29743    6.40859   -1.94586
H      1.10809    7.39333   -0.61305
H      0.01800    7.49476   -1.86239
