25   

C       -0.2040733144   -5.5683263689   -3.7876345850
C        0.0633350092   -4.7724863555   -2.5980667659
C       -0.4527109922   -4.7867344657   -4.8851780335
C       -0.0164042871   -1.0263158459   -1.8618336064
C        0.2404608229   -2.3720519471   -1.8595235012
C       -0.0001617853   -3.4173698093   -2.8393193816
C        0.4538093968   -0.5443518114   -0.5760737698
C       -2.1804234232   -0.3018783321   -2.9351284272
C        0.3545085825    0.8504023925   -0.0320492982
C       -0.6601750347   -0.1575750791   -2.9250297911
N        0.9458771848   -1.5366611807    0.1173081219
N        0.8188893528   -2.6537362351   -0.6506856914
O       -2.7333499408   -0.5161149821   -4.0015299261
O       -2.8460378634   -0.1576257686   -1.7613461168
S       -0.3707744533   -3.0698988982   -4.5109459257
H       -0.2088510330   -6.6529704734   -3.8036317534
H        0.2762541204   -5.2156832088   -1.6331532450
H       -0.6782154946   -5.1693456769   -5.8739818642
H       -0.5287305612    1.3563133833   -0.4300456605
H        0.2819674070    0.8217081967    1.0590097842
H        1.2471787308    1.4173094213   -0.3087580678
H       -0.2536554492   -0.3938297773   -3.9103723602
H       -0.4228709131    0.8924035084   -2.7403660031
H        1.1370240988   -3.5794189625   -0.3765427512
H       -3.7861104305   -0.3003397830   -1.9563616002
25   

C       -0.1916518301   -5.4489327184   -4.0020254403
C       -0.0657084965   -4.6873814142   -2.7675550246
C       -0.0677656024   -4.6541371810   -5.1118163647
C        0.0862862491   -0.9979856173   -1.9177324094
C        0.3398292724   -2.3406023283   -1.9612229066
C        0.1325320198   -3.3438956784   -2.9927386050
C        0.5219534732   -0.5699847237   -0.6011587210
C       -2.0710850403   -0.2449905997   -2.9273565153
C        0.4169732262    0.8034378928   -0.0064160031
C       -0.5524240570   -0.1043744677   -2.9596175477
N        0.9832067791   -1.5942684410    0.0679742521
N        0.8747282051   -2.6797696321   -0.7478975860
O       -2.6162279156   -0.9031950351   -3.7980457489
O       -2.7459064893    0.4196352416   -1.9560356137
S        0.2027502305   -2.9659761450   -4.6950898536
H       -0.3677206802   -6.5185952879   -4.0398693286
H       -0.1382445826   -5.1372028434   -1.7846433929
H       -0.1333582698   -5.0111088649   -6.1331203436
H       -0.4305416908    1.3454559516   -0.4331715212
H        0.2804733825    0.7319922455    1.0764975513
H        1.3351902879    1.3615370597   -0.2066614275
H       -0.1777829368   -0.3362978998   -3.9580504145
H       -0.2961343942    0.9398287918   -2.7654381903
H        1.1887000656   -3.6174019395   -0.5100733356
H       -3.6851960294    0.2055522653   -2.0772687878
25   

C       -0.2247391333   -5.3823376033   -3.9915354501
C       -0.1930369998   -4.6006098556   -2.7634382758
C        0.1723867063   -4.6483431483   -5.0800310541
C        0.1193928384   -0.9619454413   -1.9122313674
C        0.3992661791   -2.2969924972   -1.9443949881
C        0.2026457551   -3.3020727775   -2.9789424208
C        0.5529965265   -0.5146629261   -0.6010910882
C       -2.0827499851   -0.2231041176   -2.8146615182
C        0.4691992588    0.8695016719   -0.0283310544
C       -0.5685457067   -0.1186361147   -2.9637895161
N        1.0561085936   -1.5216653512    0.0657678102
N        0.9749828727   -2.6141193461   -0.7450194134
O       -2.6965204496   -0.9495321538   -3.5790392678
O       -2.6782035271    0.5414970155   -1.8652916855
S        0.5926513949   -2.9929134980   -4.6525641157
H       -0.5310994724   -6.4217297194   -4.0407187864
H       -0.4656101392   -4.9974639853   -1.7924257183
H        0.2191123212   -5.0308005499   -6.0931287735
H       -0.4427021269    0.9607068512    0.5680849523
H        1.3287873965    1.0570888409    0.6212577651
H        0.4494483987    1.6219149100   -0.8193886721
H       -0.2763943492   -0.4309264480   -3.9679903656
H       -0.2783671695    0.9290617136   -2.8605983781
H        1.3236302305   -3.5411615827   -0.5122155181
H       -3.6266898258    0.3367384572   -1.9023807590
25   

C       -0.2861812258   -5.3707451834   -4.0097839418
C       -0.3399315745   -4.5714961188   -2.7934512486
C        0.3557907371   -4.7155064432   -5.0306970473
C        0.0785771309   -1.0132149599   -1.8884326004
C        0.4144036417   -2.3321734013   -1.9144152642
C        0.2384271745   -3.3374744119   -2.9568747610
C        0.5355870426   -0.5307919798   -0.5989028568
C       -2.1632874196   -0.2802136972   -2.6863175882
C        0.4128022197    0.8582604479   -0.0464262638
C       -0.6613967404   -0.2265680243   -2.9464865255
N        1.1050205977   -1.5074265642    0.0612032827
N        1.0454399433   -2.6131347011   -0.7350036433
O       -2.8341298051   -1.0915474436   -3.3031955542
O       -2.6862105955    0.6146118289   -1.8112632873
S        0.9110374363   -3.1131745276   -4.5547314065
H       -0.7086927634   -6.3657877011   -4.0991849952
H       -0.7947975503   -4.9060422301   -1.8680263931
H        0.5034320263   -5.1251464236   -6.0232983207
H       -0.4490594172    0.9075750356    0.6244842831
H        1.3106631779    1.1132025972    0.5234585585
H        0.2774443289    1.5882592229   -0.8473050062
H       -0.4512573968   -0.6262379062   -3.9412484908
H       -0.3360680823    0.8162765465   -2.9404907002
H        1.4373543277   -3.5238149163   -0.5052178946
H       -3.6372302007    0.4246499684   -1.7602218841
25   

C       -1.1249066509   -5.1414782100   -4.3298842704
C       -1.3173325082   -4.3128731003   -3.1474830130
C        0.1127563074   -4.9574123590   -4.8954509929
C       -0.0489546448   -1.2525353055   -1.7386245484
C       -0.0727358126   -2.6112370407   -1.7546113880
C       -0.2230728286   -3.5303678158   -2.8823393920
C        0.1548040371   -0.8925905983   -0.3490197167
C       -1.6920723616    0.0987464204   -3.0291638118
C        0.2657839675    0.4875553808    0.2269836317
C       -0.2309907423   -0.3236918829   -2.9158829947
N        0.2459236061   -1.9776844351    0.3783563523
N        0.1138398266   -3.0380588155   -0.4703214631
O       -2.4418445071   -0.5708835506   -3.7210098061
O       -2.0761816900    1.2276065343   -2.3830349742
S        1.0835100374   -3.7768030735   -4.0191036225
H       -1.8758669324   -5.8195783275   -4.7208215246
H       -2.2235388690   -4.2997793124   -2.5522385429
H        0.4606390032   -5.4704539914   -5.7846207664
H       -0.6949318684    0.7802125857    0.6588926145
H        1.0202833715    0.5010564983    1.0184998504
H        0.5408385017    1.2113556785   -0.5433843324
H        0.0759568351   -0.8176281792   -3.8417511107
H        0.3926418520    0.5655560858   -2.7960613428
H        0.1621339157   -4.0182886400   -0.2003030416
H       -3.0269535730    1.3304528648   -2.5523677631
25   

C       -1.1369589789   -4.8756172062   -4.4775884811
C       -1.3173233478   -4.0188535199   -3.3136490386
C        0.1863436348   -5.0183941554   -4.8160949594
C       -0.0554693194   -1.2812177914   -1.7012945331
C        0.0409160556   -2.6362598419   -1.6980115104
C       -0.1225733426   -3.5723850782   -2.8116490179
C        0.1459059564   -0.8813725059   -0.3230581517
C       -1.8179364595   -0.0170957919   -2.9276461194
C        0.1740044845    0.5157422313    0.2207617529
C       -0.3402296658   -0.3930197463   -2.8890403376
N        0.3241491887   -1.9434338885    0.4217046753
N        0.2551344671   -3.0261930215   -0.4066000802
O       -2.6176656563   -0.8325939244   -3.3587420442
O       -2.1669661288    1.2211803433   -2.4993500420
S        1.2566299066   -4.1259307267   -3.7376274757
H       -1.9561355184   -5.3369535526   -5.0185877365
H       -2.2815165754   -3.7367722406   -2.9038145343
H        0.5421713542   -5.6078273299   -5.6532217682
H       -0.7987744291    0.7573619696    0.6569476606
H        0.9343472311    0.5953618979    1.0028034382
H        0.3956520597    1.2366395940   -0.5695148231
H       -0.0748988460   -0.9050492335   -3.8181804192
H        0.2643031801    0.5157833593   -2.8317496675
H        0.3507279575   -3.9973253172   -0.1167829104
H       -3.1332922817    1.2775184678   -2.5790014339
25   

C       -1.1222416953   -4.7811828263   -4.5842244666
C       -1.2901789739   -3.8563193770   -3.4719749916
C        0.1816290532   -5.1852935849   -4.7299581200
C       -0.0910347262   -1.3193684208   -1.7269215988
C        0.0752670196   -2.6694887443   -1.7163071596
C       -0.1133948575   -3.6243547523   -2.8065492069
C        0.1442827343   -0.8951119457   -0.3611127908
C       -1.9144569121   -0.0393252951   -2.8667303964
C        0.1377162608    0.5086022492    0.1663141502
C       -0.4446304850   -0.4456771495   -2.9086048291
N        0.3979015422   -1.9389108213    0.3868507945
N        0.3474586871   -3.0328222863   -0.4275135627
O       -2.7497895729   -0.8265467284   -3.2818742306
O       -2.2171131460    1.1971529889   -2.4003956138
S        1.2461820053   -4.4653622591   -3.5249730045
H       -1.9346497282   -5.1034662530   -5.2266912131
H       -2.2315085376   -3.3862418540   -3.2074728807
H        0.5272169569   -5.8675718929   -5.4980267050
H       -0.8313983365    0.7222660619    0.6245837056
H        0.9147928336    0.6241210831    0.9271658799
H        0.3142759872    1.2267473180   -0.6378029016
H       -0.2439135473   -0.9746185082   -3.8444650741
H        0.1775010818    0.4531276022   -2.9048093597
H        0.4877043843   -3.9959332845   -0.1291497037
H       -3.1844186492    1.2766391206   -2.4389188839
25   

C       -1.0941195878   -4.7420911788   -4.6592702010
C       -1.2582593720   -3.7432650580   -3.6125211977
C        0.1441598607   -5.3321508189   -4.6229421199
C       -0.1577124837   -1.3272162893   -1.7300410734
C        0.0481214302   -2.6742984023   -1.7347131845
C       -0.1481538487   -3.6357111447   -2.8124791643
C        0.1266699751   -0.9027421733   -0.3728463882
C       -2.0247602295   -0.0161539023   -2.7798193913
C        0.1121860952    0.4975855491    0.1638691933
C       -0.5631414008   -0.4415794931   -2.8876597459
N        0.4443388809   -1.9412390346    0.3569573816
N        0.3895953636   -3.0320217950   -0.4603460692
O       -2.8821851811   -0.7547796683   -3.2362320479
O       -2.2954960809    1.1897740020   -2.2232855413
S        1.1479569273   -4.7021112598   -3.3202999035
H       -1.8626555160   -4.9844307116   -5.3854417291
H       -2.1549205361   -3.1486020162   -3.4811820376
H        0.4761297081   -6.0985599301   -5.3138260031
H       -0.8454595188    0.6913759509    0.6539410476
H        0.9111809582    0.6227937119    0.9001224228
H        0.2506146446    1.2236918312   -0.6405588949
H       -0.4063478339   -0.9616973628   -3.8365737240
H        0.0668583187    0.4515970993   -2.9052226502
H        0.5710711772   -3.9915619254   -0.1728994087
H       -3.2618345100    1.2879582787   -2.2367699279
25   

C       -1.0331752488   -4.6889718895   -4.7516822058
C       -1.1768143770   -3.6295492280   -3.7633523987
C        0.0995596789   -5.4352050920   -4.5500665474
C       -0.1841022696   -1.3261584026   -1.7280258587
C        0.0384130219   -2.6726883389   -1.7614108733
C       -0.1577160718   -3.6249228291   -2.8423469620
C        0.1533172820   -0.9171784915   -0.3772617628
C       -2.0905849737   -0.0102879977   -2.7101891482
C        0.1460797525    0.4736464122    0.1846205066
C       -0.6247151429   -0.4119856537   -2.8515620293
N        0.5215779939   -1.9597383239    0.3212461292
N        0.4490549507   -3.0383987112   -0.5094492126
O       -2.9369756389   -0.6869669033   -3.2709516642
O       -2.3756926404    1.1175031999   -2.0147025848
S        1.0243376134   -4.8811960863   -3.1584293583
H       -1.7418607414   -4.8631957361   -5.5542716718
H       -2.0037251942   -2.9305065966   -3.7545687492
H        0.3990056972   -6.2716733250   -5.1710232581
H       -0.7978859476    0.6522747895    0.7059601497
H        0.9658112326    0.5916880363    0.8989598149
H        0.2560812588    1.2153902735   -0.6097198795
H       -0.4687346866   -0.8951417346   -3.8196484704
H       -0.0108448273    0.4923929951   -2.8497189197
H        0.6642476908   -3.9976375090   -0.2452205738
H       -3.3423340482    1.2124549690   -2.0295131000
25   

C       -0.9335837547   -4.6430040283   -4.8022744044
C       -1.0517709001   -3.5226406349   -3.8802257890
C        0.0548685169   -5.5167054324   -4.4313415865
C       -0.2176781519   -1.2926598386   -1.7146647269
C        0.0185843682   -2.6392502899   -1.7586590364
C       -0.1543661962   -3.5911959605   -2.8407439155
C        0.1457528212   -0.8841065325   -0.3695006442
C       -2.1596316617   -0.0315924470   -2.7049371781
C        0.1273902734    0.5014101392    0.2063934650
C       -0.6737543464   -0.3622275203   -2.8197651885
N        0.5531440599   -1.9217141258    0.3131033433
N        0.4794530155   -2.9966102015   -0.5210043851
O       -2.9485780089   -0.6435110936   -3.4062625616
O       -2.5234329126    0.9746404809   -1.8730478455
S        0.8702058162   -5.0100136487   -2.9568834712
H       -1.5594964276   -4.7690505285   -5.6792632192
H       -1.7864146238   -2.7378557090   -4.0015436640
H        0.3105761715   -6.4181734290   -4.9762446330
H       -0.8095978025    0.6596438888    0.7465792115
H        0.9579961531    0.6253874666    0.9070502767
H        0.2110726031    1.2540570888   -0.5805534835
H       -0.4637353764   -0.7986318337   -3.7993444079
H       -0.1061674911    0.5703141533   -2.7715063763
H        0.7268936721   -3.9510910194   -0.2680697418
H       -3.4910274333    1.0403631405   -1.9274135256
25   

C       -0.8091763818   -4.6364694768   -4.8358933307
C       -0.8713347157   -3.4652472230   -3.9737861416
C       -0.0076521673   -5.6183568279   -4.3181194624
C       -0.2089072074   -1.2939890627   -1.6971382105
C        0.0450753445   -2.6406706168   -1.7512960624
C       -0.1159560001   -3.5971241929   -2.8306256015
C        0.2206814384   -0.8744265642   -0.3741339788
C       -2.2185273415   -0.1768622051   -2.7489407999
C        0.1794305819    0.5040038054    0.2179913792
C       -0.7009082392   -0.3489470066   -2.7756199049
N        0.6694812091   -1.9032123706    0.2931861039
N        0.5616383153   -2.9819931210   -0.5301132305
O       -2.8752537300   -0.6675103252   -3.6526928820
O       -2.7569479384    0.5715961618   -1.7555937876
S        0.6943266646   -5.1524908094   -2.7749291295
H       -1.3426065716   -4.7197361213   -5.7768050902
H       -1.4758753174   -2.6040633382   -4.2184248631
H        0.1760110917   -6.5740693675   -4.7954445187
H       -0.5378389492    1.1376719984   -0.3075580720
H       -0.1035927756    0.4468111395    1.2727346498
H        1.1709375993    0.9595192587    0.1506934365
H       -0.3769926372   -0.6932785427   -3.7606718812
H       -0.2444637650    0.6339220304   -2.6335400150
H        0.8340011451   -3.9314416490   -0.2840036834
H       -3.7177445119    0.5696162897   -1.8969698981
25   

C       -0.7292484118   -4.6476358028   -5.0032003979
C       -0.6606813027   -3.4492851755   -4.1797101498
C       -0.2038611692   -5.7417286538   -4.3708523851
C       -0.1045029425   -1.3723242191   -1.7866679169
C        0.1230669007   -2.7236446444   -1.8674474981
C       -0.0799948880   -3.6698881101   -2.9498637425
C        0.3548009219   -0.9801025648   -0.4658566806
C       -2.1524910733   -0.3597480478   -2.8584025671
C        0.3053356666    0.3843794145    0.1570587803
C       -0.6269556167   -0.3955163755   -2.8212313886
N        0.8155101016   -2.0221262553    0.1708615414
N        0.6795215568   -3.0844241560   -0.6690756187
O       -2.7179238360   -0.7506654090   -3.8667115687
O       -2.8024715686    0.1604929096   -1.7885334063
S        0.3894535653   -5.3516370482   -2.7632071763
H       -1.1550957931   -4.6681131082   -6.0007101859
H       -1.0536739109   -2.5039825114   -4.5232574185
H       -0.1579104453   -6.7352073533   -4.8019480305
H       -0.5059260256    0.9782297359   -0.2707555172
H        0.1475652425    0.2961780823    1.2357297310
H        1.2542670000    0.8994598012   -0.0143978211
H       -0.2246020017   -0.6326849986   -3.8083012013
H       -0.2714251715    0.6113054567   -2.5895275935
H        0.9555354143   -4.0387852751   -0.4472957128
H       -3.7518609178    0.0947229529   -1.9814891541
25   

C       -0.8286409010   -4.5204533915   -4.9110198563
C       -0.5341054004   -3.3098369535   -4.1584136958
C       -0.7065904118   -5.6490124156   -4.1454795967
C       -0.0321782907   -1.2403873524   -1.7538338165
C        0.1362986170   -2.5998858606   -1.8109688338
C       -0.1963372879   -3.5602435353   -2.8467708235
C        0.4846662854   -0.8420509276   -0.4569652455
C       -2.1301723814   -0.5441516602   -2.9909983489
C        0.4853372025    0.5320490774    0.1457506657
C       -0.6384665453   -0.2963891625   -2.7739871425
N        0.9275090345   -1.8897328395    0.1847111285
N        0.7181172877   -2.9630919081   -0.6264854747
O       -2.5367063372   -0.6092157486   -4.1401063088
O       -2.9308615152   -0.6686463695   -1.9036415606
S       -0.2327103272   -5.2787351269   -2.4934267885
H       -1.1137931859   -4.5235984086   -5.9576891252
H       -0.5781399138   -2.3296775817   -4.6122972658
H       -0.8810959597   -6.6559329147   -4.5069160218
H       -0.4088867837    1.0834571008   -0.1554307713
H        0.5040335419    0.4622809960    1.2373252134
H        1.3721248963    1.0785019279   -0.1859158633
H       -0.1008178006   -0.3806320119   -3.7211071459
H       -0.5185767399    0.7379310029   -2.4453326540
H        0.9575394845   -3.9244103936   -0.3928082454
H       -3.8247974384   -0.8522462806   -2.2343190373
25   

C       -0.8377501780   -4.4149540721   -4.9130385934
C       -0.3866300085   -3.2487320988   -4.1678837509
C       -1.0147898293   -5.5083272132   -4.1057848343
C        0.0052271609   -1.2029823555   -1.7313665094
C        0.1613939949   -2.5610809937   -1.7944851607
C       -0.2312951121   -3.5034631077   -2.8252391934
C        0.5704389844   -0.8142136704   -0.4520465951
C       -2.1165921316   -0.7198727209   -3.0521886109
C        0.6622400387    0.5663071000    0.1280786337
C       -0.6909258994   -0.2818065472   -2.7160990912
N        1.0414649972   -1.8667965489    0.1634508846
N        0.8019533340   -2.9364345373   -0.6457055590
O       -2.4673612033   -0.6586134600   -4.2198238804
O       -2.9200993195   -1.1547751069   -2.0498263409
S       -0.6409137237   -5.1594570859   -2.4221238179
H       -1.0156546406   -4.4136621336   -5.9831610598
H       -0.1936921690   -2.2907592968   -4.6345456046
H       -1.3478757985   -6.4788722690   -4.4551500095
H       -0.2390449189    0.7770386700    0.7103047032
H        1.5291505993    0.6364319162    0.7913850732
H        0.7591491635    1.3140079057   -0.6624680035
H       -0.1000409628   -0.2168599377   -3.6331325259
H       -0.7528151885    0.7268082478   -2.3026096908
H        1.0520638360   -3.8994615541   -0.4310856949
H       -3.7558734023   -1.4274808789   -2.4608442905
25   

C       -0.7764926130   -4.3937314059   -4.9380315799
C       -0.2348107132   -3.2631150617   -4.1981018940
C       -1.1746212716   -5.4115407355   -4.1093008679
C       -0.0222753304   -1.1743780020   -1.7639837970
C        0.1718113997   -2.5252711840   -1.8187964623
C       -0.2252845715   -3.4783871825   -2.8413467857
C        0.5831731574   -0.7571859308   -0.5128614848
C       -2.1578055041   -0.8512744469   -3.1220308461
C        0.6496164377    0.6305981703    0.0525440119
C       -0.7838676353   -0.2982593450   -2.7415318816
N        1.1217174428   -1.7883241982    0.0855083999
N        0.8860729557   -2.8729405894   -0.7059712785
O       -2.4851782238   -0.7935656449   -4.2966664624
O       -2.9437245787   -1.3779415016   -2.1501479807
S       -0.9040541626   -5.0346939348   -2.4109173784
H       -0.8608940144   -4.4212766681   -6.0191806828
H        0.1130088705   -2.3504015106   -4.6677773123
H       -1.6091930711   -6.3436604426   -4.4516950036
H       -0.2088590935    0.7976332060    0.7088855993
H        1.5643622337    0.7511692606    0.6399328137
H        0.6385670050    1.3762306403   -0.7457656683
H       -0.1846954636   -0.1648301164   -3.6459477358
H       -0.9419387986    0.6909418632   -2.3067195785
H        1.1839970087   -3.8245423586   -0.5015863140
H       -3.7384637580   -1.7187930122   -2.5905465910
25   

C       -0.7227510771   -4.3860380811   -4.9239627152
C       -0.0994728273   -3.3119475753   -4.1639695178
C       -1.3387950533   -5.3047185945   -4.1118683643
C       -0.0546763571   -1.1816065646   -1.7224534681
C        0.1652545316   -2.5261101571   -1.7853742145
C       -0.2430742693   -3.4791156316   -2.8092347801
C        0.5990146218   -0.7517076629   -0.5006859541
C       -2.2042718317   -0.9488646437   -3.0814007276
C        0.6581962003    0.6373557938    0.0619037330
C       -0.8654244993   -0.3286771597   -2.6804212575
N        1.1957855723   -1.7697750271    0.0655092189
N        0.9510404605   -2.8592106317   -0.7174584571
O       -2.5141164536   -0.9138744681   -4.2616857758
O       -2.9833928037   -1.5014081380   -2.1185653615
S       -1.1802111809   -4.9024618420   -2.4046294485
H       -0.7093025267   -4.4444650996   -6.0070612116
H        0.4041318357   -2.4641448366   -4.6144974246
H       -1.8677017594   -6.1798678906   -4.4714005948
H       -0.1585458805    0.7763074288    0.7754841938
H        1.6063355446    0.7876693051    0.5860607211
H        0.5681777764    1.3819696342   -0.7323730115
H       -0.2730913481   -0.1437368507   -3.5804940013
H       -1.0786491585    0.6396859889   -2.2224712578
H        1.2874687249   -3.8024638498   -0.5351821185
H       -3.7518805691   -1.8835260618   -2.5714633639
25   

C        0.3205547449   -4.8570534406   -4.5554763666
C        0.7659905716   -3.8758381870   -3.5757800321
C       -0.9595605658   -5.2874408662   -4.3097109271
C       -0.0380308911   -1.2860415685   -1.6194764766
C       -0.0743647676   -2.6433029655   -1.5445381946
C       -0.1865183346   -3.6273783162   -2.6204938810
C        0.1163605410   -0.8335800667   -0.2504762640
C       -1.6250624014   -0.0284909012   -3.0704845706
C        0.2128316408    0.5815615512    0.2364607852
C       -0.1699868624   -0.4361777899   -2.8621050535
N        0.1750117596   -1.8672212760    0.5509611405
N        0.0607877156   -2.9818403793   -0.2278357444
O       -2.3096877425   -0.6824451352   -3.8400346373
O       -2.0709242054    1.0778685257   -2.4248093086
S       -1.6624047406   -4.5246226429   -2.8858655048
H        0.9270905750   -5.2010401216   -5.3863163122
H        1.7330756339   -3.3863104571   -3.5981383235
H       -1.4895185673   -6.0107861579   -4.9185992309
H       -0.7631893077    0.9054673600    0.6076799640
H        0.9339205330    0.6453244969    1.0561189271
H        0.5231573606    1.2516920396   -0.5681955709
H        0.1805135074   -0.9866911387   -3.7391887141
H        0.4434426906    0.4634545077   -2.7718945524
H        0.0668761068   -3.9413655401    0.1121574301
H       -3.0087305225    1.1725677946   -2.6590869473
25   

C        0.4225417553   -5.0564064116   -4.4143236425
C        0.8775663486   -4.0986986789   -3.4157336961
C       -0.9375188788   -5.2392366016   -4.3722318352
C       -0.0966629439   -1.2652393007   -1.6427198487
C       -0.0346463348   -2.6213253610   -1.5858038933
C       -0.1577080707   -3.6046496031   -2.6641894282
C        0.0881756542   -0.8198194051   -0.2753290290
C       -1.7906365019   -0.0315907169   -2.9974259994
C        0.1304100751    0.5939433720    0.2228058121
C       -0.3197847445   -0.4150776912   -2.8716105027
N        0.2407048897   -1.8572909364    0.5093273720
N        0.1620425807   -2.9684091474   -0.2791674586
O       -2.5109386207   -0.7080375225   -3.7130501960
O       -2.2126830908    1.0801802605   -2.3452407694
S       -1.7084757157   -4.2621263553   -3.1254285048
H        1.0809641934   -5.5620015732   -5.1124850376
H        1.9114723497   -3.8011600403   -3.2813200291
H       -1.4869838102   -5.9031403322   -5.0296439823
H       -0.8460660327    0.8647845088    0.6330210305
H        0.8779115648    0.6876493820    1.0155267075
H        0.3763556757    1.2851479301   -0.5864196448
H       -0.0092292734   -0.9583416126   -3.7685649466
H        0.2829490755    0.4945751766   -2.8136446197
H        0.2255324476   -3.9300715408    0.0486328170
H       -3.1633329030    1.1599804136   -2.5273994731
25   

C        0.4584886991   -5.2012266792   -4.2814259295
C        0.9296351776   -4.2800694203   -3.2563458879
C       -0.8968317447   -5.1062492123   -4.4769092420
C       -0.0910018838   -1.2020898199   -1.6454546916
C        0.0518342948   -2.5536687109   -1.6459483201
C       -0.0855882678   -3.5146572122   -2.7404103529
C        0.1196317796   -0.8003948199   -0.2682116641
C       -1.8486869590    0.1339011440   -2.8257925651
C        0.1276072866    0.5955738661    0.2792269084
C       -0.3896435567   -0.3113296632   -2.8292054051
N        0.3438930408   -1.8580458190    0.4709627863
N        0.2913629935   -2.9412066502   -0.3573677540
O       -2.6747272565   -0.5685018914   -3.3847556669
O       -2.1470014164    1.3214213170   -2.2430540053
S       -1.6426438955   -3.8998472989   -3.4323913240
H        1.1032732376   -5.8823132929   -4.8264303230
H        1.9623622791   -4.2037765081   -2.9350439633
H       -1.4561234730   -5.6977768634   -5.1925961633
H       -0.8427086239    0.8159072345    0.7318482612
H        0.8991913928    0.6895727504    1.0485797807
H        0.3209353590    1.3225371456   -0.5130269390
H       -0.1769698803   -0.8397934052   -3.7627529832
H        0.2541485910    0.5715597904   -2.8007376188
H        0.3906194587   -3.9114286477   -0.0660015827
H       -3.1075848145    1.4350175138   -2.3314932557
25   

C        0.4514352240   -5.3668782505   -4.1820977641
C        0.8946382035   -4.4561819767   -3.1356123791
C       -0.8366488774   -5.1091894765   -4.5784855181
C       -0.1805490749   -1.2105433137   -1.7238352329
C        0.0481074229   -2.5516228068   -1.7314263656
C       -0.0657976036   -3.5310813951   -2.8070151948
C        0.0632376511   -0.7939165747   -0.3561947676
C       -2.0327685359    0.0845653956   -2.8130116481
C        0.0188580491    0.6021737327    0.1894471718
C       -0.5665443999   -0.3302464428   -2.8909481522
N        0.3823373155   -1.8337694200    0.3728758538
N        0.3619426056   -2.9196159270   -0.4526763577
O       -2.8749394385   -0.6516675151   -3.2994082058
O       -2.3225941489    1.2834154804   -2.2498130668
S       -1.5489598600   -3.7569852149   -3.7037401660
H        1.0669965025   -6.1569765363   -4.5986606910
H        1.8725886827   -4.5006775738   -2.6698004215
H       -1.3659346520   -5.6648757493   -5.3439925614
H       -0.9511761093    0.7799413104    0.6608329121
H        0.8009500348    0.7330952681    0.9426810771
H        0.1639205989    1.3350706584   -0.6076857944
H       -0.3895945029   -0.8532788755   -3.8347177240
H        0.0579435977    0.5669331792   -2.8975577599
H        0.5233131195   -3.8816576318   -0.1626031345
H       -3.2888882910    1.3751669858   -2.2865229571
25   

C        0.3860397205   -5.4313175085   -4.1066767765
C        0.8003947062   -4.5660727508   -3.0111325363
C       -0.7885580239   -5.0131134373   -4.6779789974
C       -0.2036845671   -1.1924276408   -1.7248931346
C        0.0471562907   -2.5318163785   -1.7475490235
C       -0.0642518194   -3.5151654338   -2.8149111295
C        0.0887007322   -0.7762307373   -0.3660545929
C       -2.1039715909    0.0888697685   -2.7515677780
C        0.0426186289    0.6159929288    0.1901312841
C       -0.6317192308   -0.2957766475   -2.8657786037
N        0.4597513252   -1.8110712477    0.3442577331
N        0.4271625913   -2.8934135373   -0.4843544963
O       -2.9412730293   -0.6479272451   -3.2453099241
O       -2.4053407505    1.2658005965   -2.1496104749
S       -1.4246197594   -3.5612485323   -3.9121438484
H        0.9410554211   -6.3043365942   -4.4330221567
H        1.6965945141   -4.7305101441   -2.4241268518
H       -1.2783205692   -5.5090242448   -5.5081131352
H       -0.9133750604    0.7765997559    0.6951036682
H        0.8478339969    0.7538835216    0.9173406192
H        0.1501795570    1.3566687684   -0.6056303365
H       -0.4580291716   -0.7891822994   -3.8254090375
H       -0.0266839997    0.6145719371   -2.8639646522
H        0.6188367335   -3.8519863860   -0.2023279084
H       -3.3735775506    1.3410051313   -2.1680147312
25   

C        0.3065876951   -5.5562834348   -3.9922834417
C        0.6837751416   -4.7258997276   -2.8572438580
C       -0.7206960773   -5.0064348511   -4.7141747612
C       -0.1986740677   -1.2327537966   -1.6996341112
C        0.0586208840   -2.5741769656   -1.7235764376
C       -0.0622613307   -3.5717850708   -2.7735952807
C        0.1538621147   -0.8032650077   -0.3581191910
C       -2.1601618586   -0.0277306920   -2.7069500623
C        0.1193614200    0.5897614916    0.1983679091
C       -0.6682607719   -0.3277704865   -2.8191928771
N        0.5720237890   -1.8273849753    0.3399428540
N        0.5128497887   -2.9150700743   -0.4784448804
O       -2.9415618424   -0.6867391170   -3.3725003374
O       -2.5387776158    1.0060586631   -1.9153702266
S       -1.2585428709   -3.4707282767   -4.0443674109
H        0.7833702842   -6.4988078676   -4.2393409490
H        1.4773532272   -4.9905462781   -2.1687060797
H       -1.1589109445   -5.4543138569   -5.5986444909
H       -0.8175219779    0.7434581202    0.7399971272
H        0.9510535005    0.7344489054    0.8937765559
H        0.1901932695    1.3320306141   -0.5996584333
H       -0.4528694520   -0.7747464135   -3.7924335176
H       -0.1188729369    0.6161425778   -2.7847790865
H        0.7358467381   -3.8666187173   -0.1970624141
H       -3.5078672781    1.0469094361   -1.9648529265
25   

C        0.2168254717   -5.5728227516   -3.9259660942
C        0.5365213504   -4.7723849616   -2.7524820673
C       -0.6036570813   -4.9056538582   -4.7969939332
C       -0.1830025662   -1.1674131765   -1.7289977858
C        0.0805820470   -2.5119024531   -1.7486288515
C       -0.0484109165   -3.5247645405   -2.7823181867
C        0.2377217403   -0.7160799618   -0.4135904208
C       -2.2090918795   -0.0995503693   -2.7846272105
C        0.1933976114    0.6761805019    0.1448707955
C       -0.6906250550   -0.2547887948   -2.8277693011
N        0.6826140325   -1.7285887240    0.2822564928
N        0.5803054097   -2.8282187828   -0.5133892106
O       -2.8801997137   -0.6749692470   -3.6250497376
O       -2.7339288339    0.7319093658   -1.8508432983
S       -1.0115589043   -3.2936300283   -4.2235161091
H        0.5866620688   -6.5787608033   -4.0933378217
H        1.1797588208   -5.1308515839   -1.9584000199
H       -0.9655952841   -5.3117560241   -5.7345361076
H       -0.5182309062    1.2980431644   -0.4019521429
H       -0.0984718868    0.6448105113    1.1982713827
H        1.1860925895    1.1287122521    0.0749561240
H       -0.3801287187   -0.6217958045   -3.8084504852
H       -0.2411063783    0.7351944607   -2.7169821217
H        0.8239310536   -3.7722845031   -0.2255815183
H       -3.6971400301    0.7064277112   -1.9710220918
25   

C       -0.0663302170   -5.5863449679   -3.8251911599
C        0.2693586074   -4.7890666542   -2.6538936081
C       -0.6416571959   -4.8330140288   -4.8144151494
C       -0.1102869439   -1.0692868058   -1.8205672961
C        0.1480848970   -2.4163602019   -1.8128005747
C       -0.0644025025   -3.4598964839   -2.8006841530
C        0.3566669669   -0.5805234043   -0.5360640265
C       -2.2273617832   -0.2029287941   -2.9020550370
C        0.2728909804    0.8202872634   -0.0048205229
C       -0.7000884142   -0.1860560281   -2.9039172426
N        0.8468821604   -1.5686471389    0.1634446890
N        0.7210570988   -2.6890629221   -0.5991937953
O       -2.8031524540   -0.3429418243   -3.9686851797
O       -2.8714094386   -0.0372917653   -1.7193090894
S       -0.7934678379   -3.1411661547   -4.3581899463
H        0.1174114512   -6.6523704006   -3.9063284153
H        0.7329795165   -5.2145649717   -1.7727919374
H       -0.9699984106   -5.2221747541   -5.7713682336
H       -0.5758459193    1.3501466777   -0.4442215813
H        0.1523070122    0.8004751716    1.0820767345
H        1.1937017036    1.3587769139   -0.2438283450
H       -0.3223005978   -0.4825211147   -3.8846398636
H       -0.3756274976    0.8461899174   -2.7544608822
H        1.0144313026   -3.6170934819   -0.3067455182
H       -3.8212937969   -0.0936108405   -1.9108011745
