23   

C       -4.8394598664   -6.8729071771   -2.0221285586
C        1.2347104612   -4.8207366735    3.1736931469
C       -3.3355728355   -4.8946904544   -1.4716640763
C        1.0757267145   -5.3672092510    1.9398700079
C       -3.7725522248   -6.5056216171    0.1796504806
C       -4.0130479218   -6.1339507279   -1.1173617765
C       -2.5758945630   -4.3762083332   -0.4440670977
C        0.6971214360   -3.5088216891    3.4436242125
C       -0.1413603370   -3.3644611756    1.3093938261
C       -1.8558197225   -3.1092718631   -0.4969829350
C       -0.8855133087   -2.6259284124    0.3053439557
N       -5.5075029474   -7.4769052801   -2.7604422693
N        0.0167433326   -2.8104621133    2.4726300616
N        0.3830435405   -4.6182218234    0.9895585203
O        0.8350727960   -3.0208989487    4.5519773429
S       -2.7150895344   -5.3748437431    1.0131887605
H        1.7543468842   -5.3328156722    3.9710961474
H       -3.4334601675   -4.4289965149   -2.4468830686
H        1.4780528242   -6.3534879145    1.7199024520
H       -4.1867341633   -7.3928053362    0.6451367397
H       -2.1559847514   -2.4459982570   -1.3020406498
H       -0.6957866253   -1.5600824368    0.2880652215
H        0.2106832236   -4.9592857477    0.0510007093
23   

C       -4.5232501866   -7.0160961496   -1.9709497666
C        1.3106816576   -4.8953978093    3.0976467766
C       -3.1738407547   -4.9317808196   -1.4118557403
C        0.9598308888   -5.4544657293    1.9101345062
C       -3.8241718942   -6.3829763521    0.3167848268
C       -3.8679167858   -6.1551279561   -1.0345415434
C       -2.6029852662   -4.2822133003   -0.3396613593
C        0.9389686719   -3.5288676703    3.3759253059
C       -0.1127616310   -3.3523558856    1.3402666788
C       -1.8925396744   -3.0039293597   -0.3854846690
C       -0.8861604128   -2.5637883956    0.3957690864
N       -5.0509870533   -7.7195752774   -2.7342842218
N        0.2283231670   -2.7886342759    2.4588757667
N        0.2424537626   -4.6628342211    1.0146917679
O        1.2457936322   -3.0300288784    4.4448609707
S       -2.9386795777   -5.1312047215    1.1783009058
H        1.8635891230   -5.4375061940    3.8516126237
H       -3.1236313621   -4.5723842394   -2.4346219059
H        1.2343913929   -6.4822830608    1.6838111876
H       -4.2840652926   -7.2346854642    0.8052391389
H       -2.2063291507   -2.3249117706   -1.1720695057
H       -0.6711306220   -1.5024918714    0.3998553603
H       -0.0755684459   -5.0106363984    0.1172590634
23   

C       -4.2291397164   -7.1186682851   -2.0247245515
C        1.2507894645   -5.1087406603    3.0574335291
C       -3.0406647212   -4.9613266818   -1.3832767003
C        0.7230621555   -5.6367093743    1.9224797917
C       -3.9511535079   -6.3217287151    0.3016891700
C       -3.7646092189   -6.1800822267   -1.0496150832
C       -2.6858893365   -4.2274822960   -0.2751960064
C        1.0477965474   -3.7101537527    3.3499501323
C       -0.1839615828   -3.4383994511    1.4278635118
C       -1.9832621180   -2.9375394695   -0.2452337877
C       -0.9595047789   -2.5737040771    0.5508525503
N       -4.6005962627   -7.8855374818   -2.8183434040
N        0.3244711826   -2.9069084872    2.4979274808
N       -0.0005763631   -4.7816374919    1.0932388956
O        1.5132724242   -3.2379586391    4.3727168425
S       -3.2548784584   -4.9909237517    1.2172852009
H        1.8231975996   -5.6993085767    3.7585604047
H       -2.8142395851   -4.6664150176   -2.4030201492
H        0.8677904336   -6.6883807196    1.6856869512
H       -4.4714473156   -7.1555224798    0.7597344735
H       -2.2993127157   -2.2077848989   -0.9840910624
H       -0.7110568298   -1.5212002757    0.6094699575
H       -0.4473395522   -5.1009943728    0.2407699043
23   

C       -3.9344790007   -7.2299990985   -2.0035042009
C        1.2296308822   -5.2088097375    2.9804525348
C       -2.8995899590   -5.0004519707   -1.3428390895
C        0.5500979846   -5.7241677413    1.9233150592
C       -4.0444486116   -6.2645464734    0.2727594593
C       -3.6475656627   -6.2124667804   -1.0392077834
C       -2.7462589441   -4.1799471092   -0.2514413885
C        1.1646043247   -3.7910172867    3.2415437243
C       -0.2256914338   -3.4730939361    1.4371141685
C       -2.0581094473   -2.8783394278   -0.1748922471
C       -1.0065030573   -2.5665569438    0.6048532534
N       -4.1607198838   -8.0612869685   -2.7867705903
N        0.4258429228   -2.9558719715    2.4344401545
N       -0.1857534995   -4.8370647966    1.1400764867
O        1.7652457947   -3.3291501630    4.1963614071
S       -3.5257722766   -4.8535271459    1.1864922993
H        1.8237194722   -5.8235309279    3.6416097740
H       -2.5106780228   -4.7733365376   -2.3306463527
H        0.5886864492   -6.7901341367    1.7105342334
H       -4.6171263446   -7.0786970181    0.7030327802
H       -2.4054347568   -2.1092098091   -0.8576987824
H       -0.7236464059   -1.5235821240    0.6780849182
H       -0.7384794843   -5.1426428727    0.3462807273
23   

C       -3.6713903088   -7.2722864294   -1.9718571871
C        1.2151572407   -5.2215334222    2.9359388650
C       -2.7765390183   -4.9948424775   -1.2708717584
C        0.3888267915   -5.7329086950    1.9870787775
C       -4.1778959226   -6.1833861940    0.1923768718
C       -3.5603307258   -6.1986237830   -1.0324533353
C       -2.8224693223   -4.1126633279   -0.2195892088
C        1.2739943832   -3.7927263041    3.1281933471
C       -0.2797246963   -3.4547872949    1.4649258067
C       -2.1545817800   -2.8016113928   -0.0838936948
C       -1.0762537401   -2.5252193828    0.6711194538
N       -3.7548746144   -8.1495260877   -2.7328205931
N        0.5098179140   -2.9433091874    2.3607055401
N       -0.3690071590   -4.8307079482    1.2430366803
O        2.0072137352   -3.3328159183    3.9865296304
S       -3.8318804479   -4.7161108205    1.0996088330
H        1.8375216777   -5.8473467550    3.5595882835
H       -2.2197083157   -4.8174487387   -2.1860898659
H        0.3326292671   -6.8072208509    1.8266694928
H       -4.8128008330   -6.9806473528    0.5630558142
H       -2.5579200479   -1.9903887110   -0.6820147844
H       -0.7698039298   -1.4889637424    0.7465487477
H       -1.0173368571   -5.1304055969    0.5224597531
23   

C       -3.4690757722   -7.3208125583   -1.9296748733
C        1.2385740026   -5.2508995870    2.8739573261
C       -2.6725533988   -5.0250371743   -1.1718906399
C        0.2733897977   -5.7558816883    2.0627005282
C       -4.3518875270   -6.1233439250    0.0484820291
C       -3.5134983588   -6.2055589796   -1.0342352900
C       -2.8957445726   -4.0950196936   -0.1864710050
C        1.4070406828   -3.8212414324    2.9683976689
C       -0.3105421030   -3.4698113969    1.4769764281
C       -2.2448063262   -2.7825088333    0.0095313721
C       -1.1350841041   -2.5282283785    0.7258710696
N       -3.4277077839   -8.2322434230   -2.6529214140
N        0.6095678659   -2.9655705102    2.2431968617
N       -0.5131033933   -4.8463506768    1.3580726991
O        2.2661686312   -3.3655072339    3.7033588170
S       -4.1514636847   -4.6191689967    0.9393802939
H        1.8930349101   -5.8823763490    3.4577557664
H       -1.9514431407   -4.8955484409   -1.9737039437
H        0.1331854772   -6.8310792324    1.9772464564
H       -5.0635029132   -6.8933924703    0.3257307418
H       -2.7240457506   -1.9340917513   -0.4691257141
H       -0.8132421023   -1.4960667170    0.7944450413
H       -1.2540423701   -5.1412509880    0.7308861623
23   

C       -3.7541288445   -7.7370831790   -0.6879525730
C        1.0828021908   -4.9745560615    3.3243995157
C       -2.5894590470   -5.4736829018   -0.6759292652
C       -0.0762187226   -5.4522165576    2.8014105426
C       -4.7056441447   -5.6862926453    0.3193679897
C       -3.7061378813   -6.3480469583   -0.3475892030
C       -2.7725535376   -4.1859538662   -0.2321593216
C        1.6355126642   -3.7441093193    2.8132589294
C       -0.1001672161   -3.5277919495    1.3167240420
C       -1.8844894846   -3.0202834267   -0.3997262297
C       -0.7333249351   -2.7612427496    0.2483604353
N       -3.7917827849   -8.8692786733   -0.9566800691
N        1.0077514323   -3.0534035948    1.8021138395
N       -0.6752969229   -4.7108776853    1.7843200581
O        2.6723703096   -3.3099865822    3.2849291461
S       -4.3291250726   -3.9867280434    0.5772592964
H        1.6143175509   -5.4835337869    4.1158228537
H       -1.7114861840   -5.8052333219   -1.2230510371
H       -0.5064950524   -6.3793610030    3.1732452729
H       -5.6279875578   -6.1524043968    0.6483815777
H       -2.2323793308   -2.2558703094   -1.0876906205
H       -0.1993745818   -1.8613161644   -0.0323593257
H       -1.5372105399   -5.0024342628    1.3356552073
23   

C       -3.6022619219   -7.7546229013   -0.5846509478
C        1.0917191066   -5.0331875411    3.2831224537
C       -2.5249155558   -5.4493830146   -0.5191816932
C       -0.1558835003   -5.4022320521    2.8924818782
C       -4.7898112876   -5.6795370693    0.0546390788
C       -3.6603725033   -6.3442828802   -0.3498942597
C       -2.8244022789   -4.1413877275   -0.2150606391
C        1.7081487932   -3.8760621301    2.6817339397
C       -0.1388471173   -3.5204631909    1.3549124711
C       -1.9631928950   -2.9534870915   -0.3040592833
C       -0.7985019569   -2.7169289226    0.3317428923
N       -3.5561895753   -8.9037496378   -0.7661295643
N        1.0520476444   -3.1475271783    1.7163081456
N       -0.7792210098   -4.6262322830    1.9163828777
O        2.8257539164   -3.5396896349    3.0335844156
S       -4.5173967209   -3.9520938171    0.2504342623
H        1.6482283190   -5.5762462129    4.0336838368
H       -1.5490278463   -5.7813841496   -0.8625277595
H       -0.6352080900   -6.2728891198    3.3343299026
H       -5.7461081417   -6.1595737726    0.2312267388
H       -2.3509574589   -2.1360000763   -0.9040781053
H       -0.2625364828   -1.8155264235    0.0597264536
H       -1.7043986631   -4.8416988912    1.5602426863
23   

C       -3.4684955296   -7.7665267807   -0.4731489643
C        1.0846936307   -5.0784508651    3.2439229571
C       -2.4823082770   -5.4226054995   -0.3641021240
C       -0.2248926607   -5.3363869282    2.9909565536
C       -4.8080039572   -5.7024322040   -0.2111151414
C       -3.6060563256   -6.3475069271   -0.3507939714
C       -2.8655498282   -4.1085318843   -0.2097524275
C        1.7397071116   -3.9961138998    2.5508792867
C       -0.1906006507   -3.5003928950    1.4002699519
C       -2.0469325253   -2.8938293911   -0.2077348503
C       -0.8758102927   -2.6647782064    0.4223335443
N       -3.3605130162   -8.9224012825   -0.5622690552
N        1.0584870314   -3.2302519346    1.6329168874
N       -0.8712203465   -4.5250254727    2.0593941630
O        2.9133792055   -3.7592057632    2.7794882245
S       -4.6211746216   -3.9574602851   -0.0846854841
H        1.6631039388   -5.6566653583    3.9504126388
H       -1.4520049835   -5.7405465156   -0.4983027995
H       -0.7338359656   -6.1494456516    3.5038017893
H       -5.7677365542   -6.2065561089   -0.1842161989
H       -2.4662633003   -2.0462657207   -0.7410785126
H       -0.3449523453   -1.7567203114    0.1630144955
H       -1.8412742609   -4.6649842692    1.7977442914
23   

C       -3.3754979826   -7.7452532676   -0.3894049376
C        1.0739035801   -5.1361016873    3.2275891113
C       -2.4412403317   -5.3836753447   -0.2239680427
C       -0.2723237982   -5.2706357430    3.1038690676
C       -4.7521023669   -5.6922722991   -0.4968067046
C       -3.5419408227   -6.3241526466   -0.3731243218
C       -2.8520739020   -4.0671543493   -0.2180395087
C        1.7600282896   -4.1328716531    2.4503543084
C       -0.2129375973   -3.4798261719    1.4642232814
C       -2.0786683971   -2.8324699897   -0.1094899704
C       -0.9083155720   -2.6098224394    0.5268110390
N       -3.2465308626   -8.9024685815   -0.3920235212
N        1.0713636188   -3.3234087484    1.5763193093
N       -0.9244256244   -4.4166665882    2.2152769853
O        2.9667963298   -4.0052800003    2.5651960899
S       -4.6019016982   -3.9408552691   -0.4313914849
H        1.6592626850   -5.7561405132    3.8916670617
H       -1.4040762265   -5.6977539391   -0.1480383450
H       -0.8047444236   -6.0224352677    3.6822435781
H       -5.6967213780   -6.2094689177   -0.6230844976
H       -2.5167036943   -1.9643473705   -0.5923011376
H       -0.3787222904   -1.6955874773    0.2880235520
H       -1.9227879864   -4.4703869194    2.0452277281
23   

C       -3.3553982148   -7.7594187513   -0.2890118988
C        1.1117612737   -5.1252534708    3.1653735216
C       -2.4615479542   -5.3848054074   -0.0935134659
C       -0.2457498354   -5.1815368862    3.1770969552
C       -4.6910597180   -5.7275296009   -0.7428093184
C       -3.5209120800   -6.3410059001   -0.3796790042
C       -2.8626177378   -4.0713657039   -0.2335140624
C        1.7749033979   -4.1828431892    2.2971317291
C       -0.2440009025   -3.4431216439    1.4822016066
C       -2.1511503952   -2.8123542944   -0.0390065839
C       -0.9804318030   -2.5647851851    0.5881849028
N       -3.2286699195   -8.9138730684   -0.2047141803
N        1.0514476909   -3.3577822995    1.4670044867
N       -0.9325719190   -4.3119306513    2.3304861300
O        2.9922648033   -4.1221572463    2.2944291679
S       -4.5518218591   -3.9746427158   -0.7472326009
H        1.7231868922   -5.7634135392    3.7875316808
H       -1.4560141880   -5.6950111477    0.1730849304
H       -0.7603986799   -5.8858978836    3.8269154066
H       -5.6006245311   -6.2585176885   -1.0002706409
H       -2.6229816077   -1.9418890879   -0.4842504647
H       -0.4781081638   -1.6328129333    0.3599961536
H       -1.9443948157   -4.3044144256    2.2664388632
23   

C       -4.2481267525   -7.2416909467    1.0215343074
C        1.1292305097   -4.9929088169    3.1394694986
C       -2.8716326808   -5.1600315869    0.5250979608
C        0.8215590637   -5.5729140705    1.9497472644
C       -4.6220758391   -5.7571320032   -0.9207047738
C       -3.9436657679   -6.0962148183    0.2198171897
C       -2.7604361569   -4.1385743421   -0.3980093149
C        0.8120134919   -3.6016145406    3.3538791282
C       -0.1227808848   -3.4462111920    1.2599334479
C       -1.8372076573   -3.0165727477   -0.5262728872
C       -0.7948012423   -2.6493256930    0.2501564303
N       -4.4903724965   -8.1817706039    1.6647032499
N        0.1811590394   -2.8632936123    2.3792036798
N        0.1988613343   -4.7772610338    0.9882674613
O        1.1023343654   -3.0759110974    4.4145053942
S       -3.9857467169   -4.2969275562   -1.6640926090
H        1.6100506765   -5.5356223821    3.9410409889
H       -2.2605945256   -5.2635953979    1.4145426913
H        1.0575059937   -6.6199260834    1.7725645023
H       -5.4568206589   -6.3209675149   -1.3214965531
H       -2.0578872406   -2.3307053971   -1.3382846123
H       -0.4642312703   -1.6196999566    0.1946447507
H       -0.0667397766   -5.1356243540    0.0780993726
23   

C       -4.3451895346   -7.2069803091    1.0164140267
C        1.1405261170   -5.1468827064    3.1486252166
C       -2.9887915372   -5.0920913774    0.6121712844
C        0.6661912940   -5.7006903058    2.0021250948
C       -4.4345716227   -5.8724217741   -1.0643299864
C       -3.9517303011   -6.1016171427    0.1973458414
C       -2.7571932226   -4.1329223614   -0.3532039301
C        0.9671057160   -3.7329711574    3.3777199325
C       -0.1510198824   -3.5001630613    1.3819830236
C       -1.8789630934   -2.9677805115   -0.3733213505
C       -0.8476421005   -2.6432061208    0.4367715884
N       -4.6590730508   -8.1146818490    1.6748096337
N        0.3098105241   -2.9447567897    2.4612768281
N        0.0234981086   -4.8556613535    1.0979154139
O        1.4028904221   -3.2320619644    4.3998961371
S       -3.7386640336   -4.4315157626   -1.7934055175
H        1.6496528770   -5.7275633552    3.9047802093
H       -2.5324825255   -5.0951194110    1.5971445474
H        0.7900947462   -6.7649503203    1.8143830352
H       -5.1636198777   -6.5039291021   -1.5595374532
H       -2.0998843442   -2.2368309231   -1.1449975093
H       -0.5279482430   -1.6084942280    0.4490001437
H       -0.3740967524   -5.1938027886    0.2287033167
23   

C       -4.4305913776   -7.1529953393    1.0102602200
C        1.1752628534   -5.1973311876    3.1117395739
C       -3.0935323135   -5.0179580772    0.6481615753
C        0.5607148028   -5.7427063711    2.0297852832
C       -4.2294014769   -5.9874383364   -1.1628368348
C       -3.9456928382   -6.0982334327    0.1736929088
C       -2.7394096104   -4.1317516525   -0.3474070289
C        1.1098977017   -3.7711946932    3.3195831637
C       -0.1702491398   -3.5063949421    1.4268001898
C       -1.9239268504   -2.9207490960   -0.2930981808
C       -0.8934295161   -2.6200102662    0.5264911410
N       -4.8184683624   -8.0195161913    1.6844109475
N        0.4213616390   -2.9610020521    2.4461162011
N       -0.1112859062   -4.8766453099    1.1681343671
O        1.6669062368   -3.2786828547    4.2854665590
S       -3.4717716769   -4.5776498510   -1.8927721036
H        1.7175384286   -5.7938640440    3.8315860514
H       -2.7918285852   -4.9183843093    1.6869978916
H        0.5999722051   -6.8162098561    1.8587835208
H       -4.8515481502   -6.6860221988   -1.7111600782
H       -2.1675702524   -2.1615442068   -1.0298907647
H       -0.5799678502   -1.5841385151    0.5714875431
H       -0.6176810436   -5.2066050899    0.3537514062
23   

C       -4.5608081975   -7.1285784551    0.9419707233
C        1.2274073239   -5.2078970062    3.0981363026
C       -3.2334060344   -4.9750175438    0.6618855109
C        0.4572949828   -5.7571556618    2.1230520580
C       -4.0117479277   -6.1047481243   -1.2429361356
C       -3.9624353726   -6.1157197994    0.1273666962
C       -2.7324729784   -4.1487683126   -0.3200279454
C        1.2729887034   -3.7731342010    3.2401628197
C       -0.1955080268   -3.5046207213    1.4888223517
C       -1.9857242357   -2.8952032933   -0.1915814842
C       -0.9538577988   -2.6053614509    0.6283814100
N       -5.0405596016   -7.9602415982    1.6006227391
N        0.5407576810   -2.9574054541    2.4084963387
N       -0.2569699730   -4.8861611535    1.3014283066
O        1.9672467860   -3.2772618013    4.1108017036
S       -3.1736585600   -4.7198408211   -1.9324734941
H        1.8139178684   -5.8073805428    3.7797839724
H       -3.1142352211   -4.7911550471    1.7261302350
H        0.4105542981   -6.8371780150    2.0027853041
H       -4.5122436300   -6.8604590548   -1.8382148369
H       -2.2654414177   -2.1109529266   -0.8882671045
H       -0.6477762426   -1.5679296310    0.6890547867
H       -0.8711905470   -5.2157502561    0.5644289628
23   

C       -4.6771223116   -7.1515824573    0.8450590162
C        1.2674587154   -5.1200418871    3.0655369249
C       -3.4030798713   -4.9573501548    0.6419725328
C        0.3686798600   -5.6886556150    2.2204469633
C       -3.7597036676   -6.2644801695   -1.2754077975
C       -3.9724510484   -6.1717250848    0.0763832085
C       -2.7580089119   -4.1824417872   -0.2941928628
C        1.3853007916   -3.6831482816    3.1107493943
C       -0.2590794150   -3.4488237415    1.5171956239
C       -2.1036579184   -2.8780463272   -0.1179319999
C       -1.0712571609   -2.5638417472    0.6896178942
N       -5.2432011014   -7.9551884871    1.4690140889
N        0.5965542044   -2.8841481192    2.3152878714
N       -0.4003126436   -4.8347212615    1.4311835693
O        2.1945294791   -3.1701561874    3.8643900717
S       -2.8593934972   -4.8914002952   -1.9084360439
H        1.9048869733   -5.7054042635    3.7128336988
H       -3.4918784735   -4.6885624983    1.6909431783
H        0.2655364411   -6.7704457887    2.1744205750
H       -4.1085972341   -7.0873462611   -1.8896450418
H       -2.4519741030   -2.0854946102   -0.7730703619
H       -0.7916388854   -1.5187891645    0.7484261545
H       -1.1026083026   -5.1781508377    0.7846114571
23   

C       -4.8021106518   -7.1376791392    0.7149446943
C        1.3288756770   -5.0774986764    3.0190612922
C       -3.5629973988   -4.9164579333    0.6134062142
C        0.3068919495   -5.6373196067    2.3210850555
C       -3.4961981639   -6.3591915793   -1.2381008672
C       -3.9791104113   -6.1855070351    0.0340553638
C       -2.7661642862   -4.1809535933   -0.2308747392
C        1.5272689532   -3.6499354984    2.9604394274
C       -0.2776406451   -3.4066479650    1.5525576733
C       -2.1811597213   -2.8446548457   -0.0123259082
C       -1.1349829466   -2.5214048686    0.7707805541
N       -5.4649296565   -7.9174197975    1.2700790708
N        0.6932347432   -2.8504204438    2.2129729119
N       -0.5037372263   -4.7841521185    1.5741187291
O        2.4475502742   -3.1456083885    3.5807195619
S       -2.5189529400   -4.9983014459   -1.7763883903
H        2.0068433822   -5.6631624251    3.6234411974
H       -3.8617187359   -4.5850141873    1.6038676602
H        0.1412258394   -6.7117463201    2.3550702462
H       -3.6955074300   -7.2327276393   -1.8491961690
H       -2.6128322383   -2.0379909758   -0.5967930156
H       -0.8657909521   -1.4735689263    0.8286761043
H       -1.2918077440   -5.1212769796    1.0314479103
23   

C       -4.9085739395   -7.1296490666    0.5620938662
C        1.3786717831   -5.0749554375    2.9588583685
C       -3.7145291590   -4.8816015735    0.5658232904
C        0.2453212528   -5.6025305843    2.4279169737
C       -3.2479421955   -6.4319954692   -1.1355178730
C       -3.9824594079   -6.1955527045   -0.0012447131
C       -2.7823596848   -4.1728936296   -0.1513889512
C        1.6570845883   -3.6708177486    2.7796324232
C       -0.2880134322   -3.3865401259    1.5822620545
C       -2.2549737479   -2.8167435636    0.1081130942
C       -1.1828331683   -2.4930368062    0.8531899286
N       -5.6556741250   -7.8935819474    1.0244248637
N        0.7878678614   -2.8602569210    2.0857087554
N       -0.5961263992   -4.7408900406    1.7265973613
O        2.6782167675   -3.1970633998    3.2474010445
S       -2.2062977616   -5.0771367049   -1.5547679786
H        2.0881218881   -5.6696309134    3.5164838883
H       -4.2063249544   -4.5043028709    1.4577083829
H        0.0178241613   -6.6585449059    2.5547615873
H       -3.3028876575   -7.3469829425   -1.7151882946
H       -2.7872438279   -1.9976614632   -0.3655838952
H       -0.9125730328   -1.4453175103    0.9069161909
H       -1.4618972299   -5.0548977162    1.3009694885
23   

C       -5.0120339787   -7.1111435047    0.3759720511
C        1.4319685580   -5.0596344811    2.9119855419
C       -3.8395716203   -4.8549817108    0.4941284008
C        0.2158531337   -5.5478296277    2.5550677206
C       -3.0578069485   -6.4835576690   -1.0072470470
C       -3.9952215668   -6.1976692721   -0.0473749949
C       -2.7893796781   -4.1723635583   -0.0686024057
C        1.7649529217   -3.6908816471    2.5996635243
C       -0.2875307201   -3.3645763511    1.6119509967
C       -2.3132658330   -2.8046981986    0.2249111366
C       -1.2142037863   -2.4712279298    0.9249885105
N       -5.8342140655   -7.8572969490    0.7264844342
N        0.8664487333   -2.8741762434    1.9514403911
N       -0.6536624453   -4.6824180970    1.8940948604
O        2.8599129556   -3.2542764803    2.9099992775
S       -1.9545517369   -5.1419693463   -1.2877230431
H        2.1685671300   -5.6604221623    3.4261795167
H       -4.4900082040   -4.4414560907    1.2590360768
H       -0.0534147316   -6.5765198298    2.7838178974
H       -3.0012097177   -7.4265071922   -1.5399533482
H       -2.9345625622   -1.9900010164   -0.1339370354
H       -0.9426570936   -1.4232159869    0.9618913101
H       -1.5760481557   -4.9705043200    1.5849147594
23   

C       -5.8349221853   -6.1548218716    0.4978752426
C        0.9829612191   -5.0683752562    3.3132565204
C       -4.0805507456   -4.3326850754    0.2144114976
C       -0.3533729616   -5.2120137402    3.1171000730
C       -3.5489335522   -6.5460479580   -0.3662818192
C       -4.5257966492   -5.7161071537    0.1220047968
C       -2.7808332314   -4.1613058387   -0.1969907950
C        1.7142799835   -4.1017952695    2.5300404040
C       -0.1992232592   -3.4882481141    1.4110967254
C       -1.9946726664   -2.9152065596   -0.2496634384
C       -0.8463385153   -2.6578933702    0.4031810305
N       -6.8977363788   -6.5124045191    0.8113896700
N        1.0766340620   -3.3243699927    1.5900034498
N       -0.9500752138   -4.4041719925    2.1510616716
O        2.9154414036   -3.9797987103    2.6976602365
S       -2.0576198201   -5.6857778556   -0.7279831582
H        1.5273769547   -5.6546081068    4.0398202595
H       -4.7152539058   -3.5259700201    0.5679082462
H       -0.9209532769   -5.9345308332    3.6992260845
H       -3.6767723190   -7.6120780899   -0.5185087428
H       -2.4159187968   -2.1045384297   -0.8359984864
H       -0.2978406442   -1.7654343005    0.1278010545
H       -1.9377013047   -4.4636689570    1.9273421205
23   

C       -5.8964287114   -6.1723351117    0.1927413945
C        1.1136092369   -5.0191943776    3.2643815883
C       -4.1349359169   -4.3387818612    0.0778744917
C       -0.2426084269   -5.0804113347    3.2164933541
C       -3.4977202907   -6.5737348223   -0.2652225180
C       -4.5473918342   -5.7335506961    0.0052834017
C       -2.7846445017   -4.1673659525   -0.1217583624
C        1.8155254142   -4.1326772173    2.3676002810
C       -0.1643967193   -3.4417184799    1.4252696791
C       -2.0392274859   -2.9018557203   -0.1500222404
C       -0.8660428283   -2.6210437912    0.4493075904
N       -6.9932179066   -6.5293248068    0.3524635950
N        1.1305009473   -3.3533227946    1.4633389394
N       -0.8888558078   -4.2712178673    2.2837476422
O        3.0328922618   -4.0838890030    2.4040005288
S       -1.9750386845   -5.7098924109   -0.4367489664
H        1.6956434216   -5.6135125910    3.9543253417
H       -4.8278972947   -3.5243811049    0.2640882915
H       -0.7876582562   -5.7417504650    3.8862555096
H       -3.5901939379   -7.6493047681   -0.3668223955
H       -2.5144885065   -2.0831652332   -0.6812601979
H       -0.3396594768   -1.7261991341    0.1409194784
H       -1.8961199594   -4.2749012585    2.1667120034
23   

C       -5.9315236250   -6.2210762109   -0.1145130890
C        1.2331253135   -4.8326945847    3.1946320609
C       -4.2153092511   -4.3427267752   -0.0492620077
C       -0.1191368380   -4.8257388025    3.3257155567
C       -3.4821679530   -6.5728315960   -0.1269529543
C       -4.5798326408   -5.7518068730   -0.0969627476
C       -2.8534702361   -4.1378474805   -0.0185599096
C        1.8505038190   -4.0296038679    2.1665744196
C       -0.2030479421   -3.2909590968    1.4465064409
C       -2.1759453275   -2.8410428053   -0.0274044152
C       -0.9928834490   -2.4976805937    0.5197457641
N       -7.0317690235   -6.6024789599   -0.1223970415
N        1.0881216133   -3.2642718869    1.3139444457
N       -0.8461984518   -4.0329742906    2.4391268398
O        3.0630004236   -4.0427699790    2.0429473658
S       -1.9717755919   -5.6724176500   -0.0928586286
H        1.8737120900   -5.4211846313    3.8360218984
H       -4.9484483927   -3.5425808630   -0.0464941620
H       -0.5998964653   -5.4233474398    4.0969146459
H       -3.5329698388   -7.6549882004   -0.1699967467
H       -2.7116692451   -2.0394429842   -0.5260819400
H       -0.5231147133   -1.5815502494    0.1841502101
H       -1.8587360310   -3.9886000599    2.4559895097
23   

C       -5.9311262714   -6.2364325317   -0.4629426484
C        1.3106585571   -4.8551599245    3.1870110529
C       -4.2299689834   -4.3649982741   -0.1762789131
C       -0.0107039912   -4.7275431887    3.4767117919
C       -3.5326237481   -6.5979616060    0.0238704481
C       -4.6013858859   -5.7725657504   -0.2095091580
C       -2.8970837661   -4.1595119234    0.1108217185
C        1.8569057656   -4.1634676225    2.0440690540
C       -0.2073535004   -3.2991532614    1.5246573570
C       -2.2385632864   -2.8584407586    0.1328959242
C       -1.0451988291   -2.5009424778    0.6484871620
N       -7.0145642810   -6.6133636633   -0.6636898726
N        1.0560394764   -3.3856996818    1.2395457933
N       -0.7791408454   -3.9264747122    2.6331617722
O        3.0404542032   -4.2848033643    1.7794607075
S       -2.0447684474   -5.7020936544    0.2977304349
H        1.9784426917   -5.4596262389    3.7843275637
H       -4.9377686220   -3.5654743088   -0.3692897332
H       -0.4366607172   -5.2398645790    4.3364207037
H       -3.5909590115   -7.6804280517    0.0364600021
H       -2.7889498926   -2.0570958024   -0.3498427613
H       -0.5990820343   -1.5757886147    0.3060050520
H       -1.7740264989   -3.7921805268    2.7711933010
23   

C       -5.0518829778   -6.7219412497   -1.8893292297
C        1.3106593276   -4.8219173278    3.2612774874
C       -3.3874579789   -4.8600859352   -1.3969714360
C        1.2960786140   -5.3364501374    2.0037630029
C       -3.6037263881   -6.6426156472    0.1142889882
C       -4.0478796367   -6.1156759439   -1.0695375866
C       -2.4381355974   -4.4809708586   -0.4702372340
C        0.6446420654   -3.5685960998    3.5233542480
C       -0.0384488380   -3.4234871382    1.3347400168
C       -1.7053181007   -3.2237986619   -0.5244066598
C       -0.7606210701   -2.7164126152    0.2939963317
N       -5.8655836014   -7.2179298790   -2.5587926237
N       -0.0191222353   -2.8983455069    2.5216006754
N        0.6192586532   -4.6144639716    1.0214625178
O        0.6604532345   -3.1058112195    4.6507744264
S       -2.3686949691   -5.6430429985    0.8661816709
H        1.8082415250   -5.3164086515    4.0834798783
H       -3.6357674841   -4.2808881115   -2.2802909037
H        1.7967884877   -6.2780276194    1.7899178332
H       -3.9709025399   -7.5673184832    0.5447445540
H       -2.0033770619   -2.5615178290   -1.3310113238
H       -0.5854394732   -1.6484598510    0.2645276379
H        0.5582310094   -4.9319848448    0.0612481735
