28   

C       -0.9864303405    0.3276407069    0.5217253189
C       -2.0409334157   -0.5895520444    0.6208309406
C       -1.7878435244    1.4789605720    2.5031843486
C       -3.9210815156    0.3917739006    3.5397769427
C       -2.8339444056    0.5554035907    2.5899831994
C       -0.8416026435    1.3739990112    1.4579440980
C       -2.9511023602   -0.4560451010    1.6616707664
C       -4.6570454247   -0.7109892841    3.1426344409
C       -5.7902527125   -1.3931287484    3.7610273493
C        1.2176042682    2.2844762045    2.5629079298
C       -0.2032476019    3.7696742985    1.0968229643
C        0.3123450551    2.3470653731    1.3292559030
N       -4.0551453027   -1.2375636209    1.9771121866
O       -6.1773432009   -2.5078616311    3.4361591648
O       -6.3724319474   -0.7090113507    4.7738571199
H       -0.2745529143    0.2218151605   -0.2887737919
H       -2.1447442871   -1.3924841648   -0.0980155548
H       -1.7103710203    2.2651782698    3.2438486516
H       -4.1130630857    0.9999325991    4.4155262540
H        0.6734031849    2.5783887944    3.4654241278
H        2.0726786989    2.9562439674    2.4385670353
H        1.5962974953    1.2663587531    2.6984289751
H       -0.8001174927    4.1145147939    1.9465119363
H       -0.8254269025    3.7997455381    0.1966665638
H        0.6363178354    4.4580739869    0.9587476493
H        0.9162809801    2.0657641693    0.4599781917
H       -4.3670051808   -2.0780267443    1.4945209710
H       -7.0858095044   -1.2860250262    5.0903282761
28   

C       -0.7191888666    0.1396854664    0.7973096500
C       -1.7288346798   -0.8220876745    0.9347569187
C       -1.8743698010    1.5911756729    2.3631893215
C       -4.0728014776    0.5522982142    3.3072384975
C       -2.8724268006    0.6206341564    2.4923667845
C       -0.7737940414    1.3587293883    1.5067737631
C       -2.7943240949   -0.5599103416    1.7866857749
C       -4.6811426212   -0.6639054536    3.0512502774
C       -5.8041141019   -1.3321243718    3.7081728754
C        1.0248088417    2.6519739680    2.6881133767
C       -0.1997043716    3.6673091833    0.7277084739
C        0.3382445090    2.3751304851    1.3471042232
N       -3.8866242812   -1.3556469440    2.1081894933
O       -5.9340257219   -2.5466154377    3.7764410529
O       -6.6703824752   -0.4929075699    4.3225477775
H        0.1148321589   -0.0670280069    0.1365846775
H       -1.6780533942   -1.7580877712    0.3929794091
H       -1.9509686911    2.5107380493    2.9299751981
H       -4.4115947732    1.2917204568    4.0227862101
H        0.3239158606    3.0859007515    3.4074565148
H        1.8561628225    3.3502641144    2.5496916509
H        1.4227504742    1.7211805504    3.1047628274
H       -0.9495218385    4.1301472538    1.3763749341
H       -0.6598161800    3.4537190409   -0.2423244339
H        0.6158690019    4.3805505993    0.5729960745
H        1.0935891444    1.9681349821    0.6664265411
H       -4.0548719777   -2.3101669192    1.7973796747
H       -7.3325046682   -1.0709990971    4.7340756006
28   

C       -0.7446476080    0.1688263744    0.7513383328
C       -1.7605352816   -0.7880603907    0.8772764575
C       -1.8844603213    1.6035333333    2.3434999261
C       -4.0776410552    0.5582784488    3.2905572827
C       -2.8882236068    0.6374904028    2.4614864286
C       -0.7881771762    1.3768535251    1.4801652072
C       -2.8211294710   -0.5322208527    1.7373428003
C       -4.6936213610   -0.6508097569    3.0216005853
C       -5.7700641126   -1.3410629969    3.7408592179
C        1.0184156573    2.6416290626    2.6820879194
C       -0.1936588699    3.6894136894    0.7311625331
C        0.3327191139    2.3859260431    1.3362164333
N       -3.9123154663   -1.3301796904    2.0580596845
O       -5.7641513957   -2.5341678982    4.0049147043
O       -6.7434716736   -0.5210689403    4.2005106395
H        0.0865215746   -0.0338973525    0.0857991523
H       -1.7166037793   -1.7167815032    0.3225554735
H       -1.9516061633    2.5134670648    2.9267746309
H       -4.3950389713    1.2790291856    4.0342882022
H        0.3197541573    3.0733803963    3.4048871445
H        1.8559376213    3.3344453050    2.5536113581
H        1.4076449371    1.7029050487    3.0890774349
H       -0.9420685187    4.1495733452    1.3833673410
H       -0.6524067479    3.4909871587   -0.2427170245
H        0.6276362067    4.3984030044    0.5876072501
H        1.0867074489    1.9810409462    0.6527827675
H       -4.0698423438   -2.2867564184    1.7493043345
H       -7.3531920627   -1.1000022403    4.6852071622
28   

C       -0.7784994925    0.1823210069    0.7134479578
C       -1.8012012722   -0.7682044298    0.8332055646
C       -1.8947887816    1.6027746689    2.3345639720
C       -4.0827710294    0.5567259811    3.2907124850
C       -2.9049565040    0.6427401304    2.4465588936
C       -0.8067729885    1.3799742282    1.4599441955
C       -2.8531953121   -0.5166566467    1.7051686679
C       -4.7088442116   -0.6439031980    3.0121550669
C       -5.7521873969   -1.3441299480    3.7827636174
C        1.0149034107    2.6165034304    2.6703069472
C       -0.1953974823    3.6952340263    0.7353310270
C        0.3223810376    2.3810086232    1.3240816619
N       -3.9450213688   -1.3135246325    2.0273412907
O       -5.6274556102   -2.4655034200    4.2472446862
O       -6.8406133322   -0.5867204809    4.0502680318
H        0.0466319920   -0.0177748561    0.0396513401
H       -1.7677761074   -1.6897610155    0.2659786874
H       -1.9495238284    2.5038925120    2.9326227139
H       -4.3785119963    1.2627171202    4.0570348879
H        0.3226873386    3.0466521671    3.4002151901
H        1.8578898314    3.3034867332    2.5462333350
H        1.3975556397    1.6702826113    3.0660193248
H       -0.9382929878    4.1536817619    1.3950179671
H       -0.6585853551    3.5112951041   -0.2392834976
H        0.6310210018    4.3993355660    0.5972547251
H        1.0708475669    1.9774666080    0.6338196989
H       -4.1026195710   -2.2667103162    1.7098838813
H       -7.4119171250   -1.1492058309    4.5970231435
28   

C       -0.7908540586    0.1986825206    0.6994293719
C       -1.8157960491   -0.7490458767    0.8221637675
C       -1.8781960563    1.6038991209    2.3531319987
C       -4.0580945481    0.5560275521    3.3260618367
C       -2.8907036964    0.6466186187    2.4679672052
C       -0.8037337091    1.3874778134    1.4603294762
C       -2.8543699879   -0.5038121831    1.7119099596
C       -4.6915295561   -0.6365995712    3.0422404410
C       -5.7436563493   -1.3296083416    3.8250237614
C        1.0375586720    2.6073533966    2.6586747358
C       -0.1944526245    3.7071943976    0.7494595641
C        0.3269236709    2.3861506639    1.3194868949
N       -3.9462244944   -1.2990274775    2.0381989867
O       -5.5533278557   -2.3220947437    4.5044438432
O       -6.9415057697   -0.7022747086    3.8115627094
H        0.0237944342    0.0035398473    0.0115639802
H       -1.7941980313   -1.6635830491    0.2431605186
H       -1.9209518404    2.4982035682    2.9622781990
H       -4.3407732138    1.2558947196    4.1027153903
H        0.3563112232    3.0331258216    3.4013460912
H        1.8810637833    3.2928167983    2.5297957639
H        1.4222673276    1.6564294080    3.0408762650
H       -0.9276614135    4.1615051822    1.4227139021
H       -0.6704836368    3.5335533380   -0.2208517223
H        0.6321461630    4.4102855978    0.6073738034
H        1.0652134353    1.9867476015    0.6159822999
H       -4.1178160583   -2.2412788134    1.6977881374
H       -7.5114862469   -1.2319657921    4.3913054161
28   

C       -0.7409152576    0.1692355811    0.8096624852
C       -1.7429449628   -0.7940613285    0.9852906871
C       -1.7922545827    1.5820405541    2.4807076675
C       -3.9463953113    0.5322985146    3.5148979507
C       -2.7843277809    0.6106046752    2.6464397219
C       -0.7479936382    1.3700434850    1.5513262661
C       -2.7529426611   -0.5516271059    1.9078591889
C       -4.5678453863   -0.6674623433    3.2654296198
C       -5.7607136132   -1.2733499419    3.9280683613
C        1.1326186163    2.6252954173    2.6392256584
C       -0.2263200464    3.7030396193    0.8045555707
C        0.3512397781    2.3915454846    1.3430213519
N       -3.8345567746   -1.3468125530    2.2642337998
O       -5.7207123935   -2.0011817551    4.8993623941
O       -6.9343355749   -0.9422552774    3.3438255225
H        0.0486755309   -0.0208055556    0.0917919684
H       -1.7300748402   -1.7143325991    0.4151893746
H       -1.8323441687    2.4887944383    3.0713637921
H       -4.2577464471    1.2717180883    4.2423086007
H        0.4853201580    3.0345605494    3.4205891406
H        1.9528341710    3.3285136682    2.4642131619
H        1.5580448620    1.6817039528    2.9955534580
H       -0.9255040565    4.1466023581    1.5197863786
H       -0.7562330560    3.5203447336   -0.1357282542
H        0.5781381735    4.4200112389    0.6131513325
H        1.0545506910    2.0063920466    0.5970047662
H       -4.0457826465   -2.2676691907    1.8904835604
H       -7.6149757994   -1.3888965505    3.8716874028
28   

C       -0.7091447695    0.0989673488    0.9149775932
C       -1.6958784761   -0.8700037209    1.1400914444
C       -1.7279246966    1.5385113935    2.5831317191
C       -3.8724605688    0.5156319156    3.6605215502
C       -2.7064825959    0.5626544942    2.7957485918
C       -0.7081070211    1.3161685117    1.6295467958
C       -2.6829356024   -0.6164551100    2.0843090347
C       -4.4942707223   -0.6959417128    3.4531348401
C       -5.8127149268   -1.1594621454    3.9537379226
C        1.2090992376    2.5936732175    2.6136302837
C       -0.2484028545    3.6544935015    0.8461494434
C        0.3667012600    2.3490488425    1.3590356278
N       -3.7652983103   -1.3995202465    2.4650276717
O       -6.0629183745   -1.5071615922    5.0908484677
O       -6.7349402361   -1.2824775812    2.9707029388
H        0.0591596765   -0.0972768104    0.1760000375
H       -1.6940359299   -1.7993896536    0.5848337664
H       -1.7656608057    2.4611986830    3.1487701561
H       -4.2172297532    1.3032091926    4.3192788250
H        0.5959955286    2.9960777121    3.4256170758
H        2.0114724778    3.3058384770    2.3971884993
H        1.6620969720    1.6552382924    2.9489157223
H       -0.9117671528    4.0976538539    1.5948980988
H       -0.8256539064    3.4644381765   -0.0643420507
H        0.5397135576    4.3762348426    0.6097648831
H        1.0343235378    1.9680938879    0.5788645104
H       -4.0319201080   -2.2903797349    2.0555736353
H       -7.5319542696   -1.6131061714    3.4147412226
28   

C       -0.7026084723    0.1240963392    0.9331296740
C       -1.6959413506   -0.8326667856    1.1813582601
C       -1.6877710707    1.5932646277    2.5953820577
C       -3.8328451403    0.6090382497    3.7041335985
C       -2.6733342368    0.6298775877    2.8303072955
C       -0.6811915832    1.3495793184    1.6332233119
C       -2.6694477231   -0.5585579336    2.1339361208
C       -4.4701540256   -0.6024412540    3.5213735214
C       -5.7970469325   -1.0163893167    4.0153400257
C        1.2703366742    2.6043377321    2.5743330069
C       -0.2087934522    3.6824364842    0.8357597705
C        0.3995759416    2.3693136980    1.3375254216
N       -3.7574169529   -1.3242952349    2.5344286797
O       -6.1430820753   -1.0740225870    5.1799780831
O       -6.6002799775   -1.4865177642    3.0304704180
H        0.0548207421   -0.0881376160    0.1873844930
H       -1.7100289443   -1.7683117274    0.6368880350
H       -1.7105681744    2.5230721579    3.1500827184
H       -4.1683926448    1.4122809848    4.3488604175
H        0.6783462401    3.0136871540    3.3984693812
H        2.0763460200    3.3071044778    2.3413366142
H        1.7190847048    1.6607125067    2.9006494531
H       -0.8491787374    4.1364097665    1.5978915147
H       -0.8084069914    3.4990797352   -0.0615404779
H        0.5838617530    4.3928424756    0.5809016915
H        1.0457779720    1.9791252182    0.5440071571
H       -4.0564462349   -2.2052911087    2.1250323521
H       -7.4164868852   -1.7541915658    3.4825296363
28   

C       -0.7185396210    0.1453880642    0.9037253197
C       -1.7220246071   -0.8037978794    1.1403043870
C       -1.6883400735    1.6049371368    2.5833895109
C       -3.8410039543    0.6292100642    3.6840221314
C       -2.6838802188    0.6492296842    2.8068737667
C       -0.6843126668    1.3621699710    1.6184167126
C       -2.6927679699   -0.5310200546    2.0960620854
C       -4.4920259588   -0.5742330348    3.4858596909
C       -5.8049862226   -0.9857437453    3.9977311689
C        1.2761931901    2.5902934099    2.5775806390
C       -0.1866721741    3.6965189338    0.8430122434
C        0.4076515011    2.3736487416    1.3357581758
N       -3.7876583299   -1.2907540736    2.4894547451
O       -6.2134288495   -0.8290928908    5.1335999578
O       -6.5195906992   -1.7063877102    3.0979954754
H        0.0369980391   -0.0660234704    0.1558382323
H       -1.7456046722   -1.7329512463    0.5851437934
H       -1.7011334258    2.5279570513    3.1496609376
H       -4.1645072638    1.4240965777    4.3453079814
H        0.6854248797    2.9990393877    3.4028875524
H        2.0898716561    3.2869522437    2.3530274711
H        1.7145378367    1.6397944398    2.8980200888
H       -0.8260061270    4.1495605465    1.6066008868
H       -0.7843841853    3.5263540701   -0.0581451465
H        0.6133932157    4.4018562114    0.5974146764
H        1.0531141465    1.9839578852    0.5414015097
H       -4.0987228332   -2.1664737235    2.0766546855
H       -7.3379600686   -1.9412104807    3.5645922651
28   

C       -0.7403432374    0.1702158673    0.8629816256
C       -1.7560257397   -0.7710049516    1.0783456682
C       -1.7069698147    1.6167232431    2.5558136293
C       -3.8732862278    0.6455670734    3.6338154792
C       -2.7145161502    0.6690202010    2.7584787946
C       -0.6981525025    1.3762696331    1.5952451282
C       -2.7310546965   -0.5010328384    2.0304778335
C       -4.5359977470   -0.5478606947    3.4122954464
C       -5.8264074028   -0.9786581975    3.9521444807
C        1.2661746356    2.5700639877    2.5905808058
C       -0.1656484969    3.7135180975    0.8542511464
C        0.4085129813    2.3782527553    1.3370402555
N       -3.8337497934   -1.2567752459    2.4094789810
O       -6.2991767223   -0.6495571103    5.0249264598
O       -6.4499837706   -1.8964075944    3.1706958989
H        0.0191198484   -0.0394114323    0.1185796702
H       -1.7847879814   -1.6925717143    0.5109144564
H       -1.7130859430    2.5310415365    3.1361595742
H       -4.1854099135    1.4266877052    4.3168182134
H        0.6715115997    2.9760155727    3.4144632018
H        2.0902139128    3.2597721242    2.3829663772
H        1.6901137466    1.6108402089    2.9043438058
H       -0.8083554579    4.1641371387    1.6164517343
H       -0.7552780920    3.5609661130   -0.0553403580
H        0.6448022026    4.4128129191    0.6260708551
H        1.0581490141    1.9907764916    0.5450082473
H       -4.1430885950   -2.1354252966    2.0008038764
H       -7.2667931254   -2.1119985690    3.6494179030
28   

C       -0.7424710609    0.2164508107    0.8118380134
C       -1.7697005141   -0.7160285307    1.0097465956
C       -1.6911117403    1.6429871181    2.5316589856
C       -3.8616785239    0.6727133667    3.6019861071
C       -2.7097387351    0.7037895023    2.7175976195
C       -0.6855630409    1.4081555775    1.5662886806
C       -2.7413312711   -0.4518969623    1.9669435749
C       -4.5400916984   -0.5068694271    3.3555514157
C       -5.7976079818   -0.9650496595    3.9413779777
C        1.2833788866    2.5726330955    2.5907569080
C       -0.1223272512    3.7447702647    0.8522113282
C        0.4346227707    2.4000100153    1.3281678012
N       -3.8492570320   -1.2042868852    2.3372984055
O       -6.3343521811   -0.5044209199    4.9328328499
O       -6.3297484202   -2.0337475322    3.2951002255
H        0.0149217288    0.0109379719    0.0641897590
H       -1.8089688501   -1.6271699503    0.4263306832
H       -1.6851013703    2.5456400977    3.1300023631
H       -4.1531786059    1.4343717749    4.3155368787
H        0.6865199876    2.9792780185    3.4126789803
H        2.1168217064    3.2546298095    2.3955368060
H        1.6939351539    1.6064325060    2.9008733135
H       -0.7685495493    4.1938250599    1.6123986176
H       -0.7044421133    3.6058809714   -0.0643868333
H        0.6966402573    4.4386369174    0.6383690778
H        1.0875572343    2.0126963559    0.5387758646
H       -4.1548090216   -2.0879524099    1.9361817500
H       -7.1404135855   -2.2396206401    3.7884545391
28   

C       -0.7819192010    0.2344675945    0.7772702228
C       -1.8239803307   -0.6845613960    0.9601145384
C       -1.7179913117    1.6568754415    2.5073607135
C       -3.9008748495    0.7017331899    3.5659915564
C       -2.7512417661    0.7309735572    2.6785079349
C       -0.7109337015    1.4170242480    1.5448248865
C       -2.7965063069   -0.4160178394    1.9151795043
C       -4.5963085683   -0.4641253137    3.3025064698
C       -5.8215452716   -0.9477713425    3.9326791651
C        1.2683499726    2.5402064489    2.5962838955
C       -0.1047016873    3.7504414359    0.8577557748
C        0.4270732731    2.3927632005    1.3253659050
N       -3.9126727100   -1.1597563583    2.2783025324
O       -6.4421167964   -0.3834280649    4.8158495214
O       -6.2440795673   -2.1388345890    3.4365057815
H       -0.0231858566    0.0249660248    0.0320933126
H       -1.8728189456   -1.5897166189    0.3681660045
H       -1.7004001470    2.5519053743    3.1168279219
H       -4.1728552721    1.4494343925    4.3017116855
H        0.6716409662    2.9489503737    3.4172683808
H        2.1141394756    3.2104901557    2.4139888739
H        1.6609887046    1.5648011021    2.9007554875
H       -0.7502606134    4.2022145240    1.6169036915
H       -0.6811955800    3.6292562738   -0.0648792677
H        0.7267777968    4.4333422972    0.6573572462
H        1.0802635605    2.0023520740    0.5377148921
H       -4.2107456630   -2.0525585553    1.8918955079
H       -7.0526760145   -2.3389843589    3.9356193031
28   

C       -0.7994859653    0.2664482492    0.7399870702
C       -1.8510720703   -0.6446460700    0.9071993952
C       -1.7286485436    1.6759069650    2.4843468544
C       -3.9174267811    0.7216335631    3.5317246204
C       -2.7712554874    0.7577627988    2.6400638836
C       -0.7199114120    1.4382651087    1.5229991612
C       -2.8246560028   -0.3787876944    1.8619305517
C       -4.6235517380   -0.4336223820    3.2503700097
C       -5.8116275527   -0.9527619262    3.9237487212
C        1.2641647728    2.5281350494    2.6014423576
C       -0.0832862427    3.7718179825    0.8664829622
C        0.4304720052    2.4036076696    1.3229364958
N       -3.9442385728   -1.1209381491    2.2175998469
O       -6.5321557814   -0.3307616817    4.6834922571
O       -6.1005622870   -2.2349958314    3.5841065445
H       -0.0392460505    0.0584266541   -0.0040690796
H       -1.9052776563   -1.5426813259    0.3049625257
H       -1.7035773511    2.5618340986    3.1067114839
H       -4.1728502673    1.4516281856    4.2907484877
H        0.6663112316    2.9349628165    3.4225372153
H        2.1187045113    3.1907435086    2.4323285911
H        1.6437585685    1.5452636860    2.8983782222
H       -0.7297902464    4.2218839237    1.6258467692
H       -0.6540741510    3.6668014300   -0.0616584946
H        0.7568706493    4.4479481477    0.6798247195
H        1.0852754938    2.0146179275    0.5359204074
H       -4.2287023848   -2.0231242440    1.8430841267
H       -6.9065111901   -2.4450025061    4.0834098772
28   

C       -0.8611261157    0.2760556246    0.7108640400
C       -1.9256372248   -0.6223055801    0.8646561650
C       -1.7672087256    1.6694184687    2.4800404499
C       -3.9605413343    0.7219725115    3.5239744369
C       -2.8222702401    0.7634211010    2.6227898758
C       -0.7635481864    1.4334933919    1.5129688130
C       -2.8938768936   -0.3582936484    1.8253492193
C       -4.6860709524   -0.4163111872    3.2232415021
C       -5.8386814728   -0.9680592267    3.9368512601
C        1.2287627296    2.4897054760    2.6133010878
C       -0.0916868663    3.7614809763    0.8779495162
C        0.4016749007    2.3840784015    1.3285993476
N       -4.0195387951   -1.0938758695    2.1753896137
O       -6.6632245739   -0.3301812168    4.5660720401
O       -5.9841460065   -2.3054907178    3.7582715205
H       -0.1045285437    0.0689446952   -0.0371514881
H       -1.9928773947   -1.5100971749    0.2487052049
H       -1.7275862732    2.5435875116    3.1180647341
H       -4.1913956007    1.4317547969    4.3094544418
H        0.6317482133    2.9003488203    3.4330713439
H        2.0934184512    3.1414069138    2.4534083239
H        1.5929720608    1.5000614604    2.9069800797
H       -0.7389515318    4.2135320818    1.6355133853
H       -0.6563374490    3.6698218085   -0.0553516205
H        0.7579932636    4.4286979553    0.7027161968
H        1.0568982219    1.9916713492    0.5436288476
H       -4.2971023228   -2.0004186068    1.8067834351
H       -6.7867165898   -2.5335807927    4.2549476157
28   

C       -0.8958473512    0.3007644326    0.6803677768
C       -1.9754846591   -0.5815800274    0.8209260276
C       -1.7866153273    1.6909622990    2.4596798028
C       -3.9938153491    0.7631082391    3.4915516086
C       -2.8566078533    0.8006027718    2.5892877069
C       -0.7827553077    1.4483343315    1.4944973881
C       -2.9432843264   -0.3113766497    1.7803928797
C       -4.7373286877   -0.3591525146    3.1767644894
C       -5.8680229722   -0.9306431795    3.9184847065
C        1.2198021507    2.4620422707    2.6171816322
C       -0.0673856265    3.7691356157    0.8830847732
C        0.3998133505    2.3802882525    1.3260791393
N       -4.0786630278   -1.0355690803    2.1227348226
O       -6.8039965676   -0.3109462785    4.3891141453
O       -5.8585706504   -2.2868306865    3.9318198757
H       -0.1391245388    0.0883059689   -0.0660229399
H       -2.0537546114   -1.4627368667    0.1968092553
H       -1.7346277186    2.5571287048    3.1076346572
H       -4.2058418889    1.4601534827    4.2934060873
H        0.6244137927    2.8766206409    3.4361433725
H        2.0964700139    3.1001336088    2.4681297092
H        1.5652281327    1.4641755764    2.9056998318
H       -0.7126231012    4.2256575339    1.6397019077
H       -0.6267197444    3.6941722759   -0.0548929538
H        0.7944432274    4.4235419858    0.7192755483
H        1.0538878771    1.9830031541    0.5426031341
H       -4.3522598925   -1.9441793505    1.7571912723
H       -6.6627415722   -2.5341125295    4.4163232890
28   

C       -0.9225931093    0.3168765355    0.6560036200
C       -2.0107888984   -0.5566329143    0.7845861980
C       -1.8016131668    1.6928550857    2.4521362840
C       -4.0162755048    0.7696781885    3.4731167595
C       -2.8801352871    0.8110495360    2.5698178199
C       -0.7992616035    1.4528997189    1.4846403574
C       -2.9766720813   -0.2892325831    1.7467821500
C       -4.7699200906   -0.3396920674    3.1436219910
C       -5.8940696780   -0.9315941741    3.8932503350
C        1.2088811091    2.4380239158    2.6240776861
C       -0.0601147145    3.7716126139    0.8966660358
C        0.3928461792    2.3749207803    1.3293646724
N       -4.1176860328   -1.0084221749    2.0803642366
O       -6.9383429236   -0.3764327842    4.1773857444
O       -5.7256677055   -2.2544803674    4.1336361247
H       -0.1671036481    0.1063592944   -0.0921917836
H       -2.0965675112   -1.4293465037    0.1496918730
H       -1.7415011383    2.5498853549    3.1114086005
H       -4.2164471890    1.4540892579    4.2885776652
H        0.6146703159    2.8515140886    3.4444242657
H        2.0921281951    3.0689200938    2.4834496206
H        1.5437830434    1.4345402633    2.9054401022
H       -0.7046043904    4.2270070379    1.6546039896
H       -0.6161127543    3.7097435496   -0.0442508070
H        0.8081291243    4.4197684282    0.7421795536
H        1.0462958836    1.9783673737    0.5449895554
H       -4.3916587046   -1.9114008011    1.7025465659
H       -6.5352033002   -2.5280214660    4.5941010277
28   

C       -0.9246723928    0.2880042322    0.6435242024
C       -1.9992303759   -0.6038822997    0.7579228686
C       -1.8371805443    1.6343521978    2.4456385962
C       -4.0482813151    0.6699306682    3.4391282235
C       -2.9026450519    0.7347729905    2.5486991719
C       -0.8247642804    1.4184657846    1.4827283728
C       -2.9750546200   -0.3601523609    1.7162953082
C       -4.7772240244   -0.4476294908    3.0966810807
C       -5.9288305161   -1.0575531594    3.8076997447
C        1.1706253651    2.4090836941    2.6359557401
C       -0.1198623723    3.7598959329    0.9378419944
C        0.3529020030    2.3610666427    1.3418866321
N       -4.1080095665   -1.0988020927    2.0332411785
O       -7.0651516508   -0.6275459136    3.8273465415
O       -5.6286841141   -2.2533740614    4.3661929496
H       -0.1615145593    0.0962463478   -0.1019356502
H       -2.0672053360   -1.4720190261    0.1146571683
H       -1.7950297589    2.4869542993    3.1119835489
H       -4.2708920081    1.3503247845    4.2519093911
H        0.5715617629    2.7958661750    3.4657687578
H        2.0440946912    3.0559076169    2.5071696713
H        1.5209798406    1.4049399373    2.8953425770
H       -0.7673376140    4.1924917683    1.7064673656
H       -0.6782295916    3.7090246537   -0.0023291051
H        0.7394049389    4.4221240719    0.7931258823
H        1.0097683948    1.9895116256    0.5481696648
H       -4.3739777555   -1.9902509480    1.6246456735
H       -6.4573152686   -2.5562407223    4.7703697116
28   

C       -0.8217960554    0.2400540684    0.7080053203
C       -1.8624535572   -0.6893308574    0.8349899844
C       -1.7635744298    1.5568305907    2.5171151290
C       -3.9601724292    0.5444208695    3.4978403269
C       -2.7970236299    0.6217171294    2.6307390947
C       -0.7540429536    1.3752446206    1.5439518809
C       -2.8371039678   -0.4778501777    1.8021170648
C       -4.6512399243   -0.5942563146    3.1606607866
C       -5.9479945077   -1.1089150896    3.6923408626
C        1.2361655947    2.4194871563    2.6491035998
C       -0.1534838187    3.7538731425    1.0173712845
C        0.3808898219    2.3654027610    1.3805936173
N       -3.9578249988   -1.2386893395    2.1092317067
O       -7.0409112536   -0.8423953158    3.2349022983
O       -5.8117749786   -1.9273975176    4.7599937222
H       -0.0626371686    0.0766676230   -0.0482287845
H       -1.9100860867   -1.5565470361    0.1886560303
H       -1.7494537912    2.4160543098    3.1760686336
H       -4.2459140217    1.2614176698    4.2574944857
H        0.6479633167    2.7657302380    3.5042613094
H        2.0800053278    3.1018824977    2.5073006298
H        1.6318848183    1.4244336865    2.8762458235
H       -0.7882441705    4.1521737915    1.8145277424
H       -0.7414923593    3.6996481481    0.0956187966
H        0.6772427248    4.4478578650    0.8555768055
H        1.0243831818    2.0326864349    0.5591641760
H       -4.2438556054   -2.0939248522    1.6412133079
H       -6.7168096895   -2.1770594408    5.0048994215
28   

C       -0.7439210395    0.1572878843    0.7589802657
C       -1.7460338931   -0.8104599319    0.9106141319
C       -1.6912248174    1.4398045798    2.5891292687
C       -3.8513081735    0.3746548659    3.5871694686
C       -2.6873641269    0.4681731361    2.7247172726
C       -0.6992230281    1.2956435445    1.5923574250
C       -2.7061628334   -0.6339630359    1.8992621564
C       -4.5177212593   -0.7890634660    3.2618941724
C       -5.8931500848   -1.1982705473    3.6370293352
C        1.2926307170    2.4020264766    2.6248762160
C       -0.2159163119    3.7073320658    1.0779218076
C        0.3858893111    2.3342679807    1.3939617978
N       -3.8084684228   -1.4199694818    2.2124621430
O       -6.8444208643   -1.1888765178    2.8768579809
O       -6.0403169222   -1.4929580808    4.9485449026
H        0.0002038542    0.0239537295   -0.0178026906
H       -1.7804575813   -1.6759020474    0.2610647357
H       -1.6985582125    2.3030947339    3.2428447895
H       -4.1830520715    1.1176676932    4.3018651729
H        0.7278033043    2.7086577624    3.5104336469
H        2.1011788414    3.1209409557    2.4599426026
H        1.7374189020    1.4202237240    2.8158932578
H       -0.8267151573    4.0713615035    1.9093954597
H       -0.8436981797    3.6449486248    0.1833082201
H        0.5803554449    4.4342307493    0.8894003418
H        1.0041589147    2.0401076084    0.5391368639
H       -4.1146457517   -2.2441548895    1.7024281880
H       -6.9828550740   -1.6956468935    5.0585043004
28   

C       -0.7579420233    0.1641610796    0.7396951271
C       -1.7583564968   -0.8059157954    0.8876179544
C       -1.6846072282    1.4183046379    2.5998626818
C       -3.8344114143    0.3388104427    3.6042226102
C       -2.6790877351    0.4445102324    2.7316999977
C       -0.7040770635    1.2897772994    1.5897045125
C       -2.7072940911   -0.6447543475    1.8895320684
C       -4.5059452877   -0.8219427994    3.2684075845
C       -5.8724523689   -1.2385256555    3.6315096434
C        1.2965765151    2.3858082653    2.6170232587
C       -0.2290758782    3.7081766728    1.1016531880
C        0.3779034181    2.3322017155    1.3942899314
N       -3.8073502811   -1.4343803544    2.2013735739
O       -6.7562650720   -1.4747885331    2.8241463212
O       -6.1182744659   -1.2205596259    4.9616026505
H       -0.0227036012    0.0429117869   -0.0474549793
H       -1.8004676922   -1.6612183524    0.2251873436
H       -1.6849395993    2.2717170215    3.2664740875
H       -4.1605203933    1.0714987037    4.3322041060
H        0.7401537027    2.6806554503    3.5118492963
H        2.1025572449    3.1078367431    2.4531284306
H        1.7444334151    1.4023063956    2.7913741482
H       -0.8324668390    4.0604138447    1.9435590485
H       -0.8653630816    3.6561701969    0.2123957389
H        0.5641609679    4.4388120650    0.9148012501
H        0.9882081173    2.0498656601    0.5298106586
H       -4.1307746510   -2.2420596122    1.6748469677
H       -7.0537187426   -1.4634515268    5.0491610356
28   

C       -0.7797354166    0.1994893618    0.7074151251
C       -1.7853579471   -0.7663971928    0.8463649676
C       -1.6867330282    1.4299931026    2.5930851152
C       -3.8314042601    0.3422325033    3.6013901004
C       -2.6862606242    0.4602411687    2.7164796578
C       -0.7133569729    1.3111140921    1.5747659253
C       -2.7266016255   -0.6152373598    1.8569287768
C       -4.5104849702   -0.8114995654    3.2529426883
C       -5.8466392577   -1.2737979431    3.6447136256
C        1.2973675118    2.3808108614    2.6116572261
C       -0.2233626393    3.7313697822    1.1161782031
C        0.3755534489    2.3482467649    1.3904106486
N       -3.8258794253   -1.4060724280    2.1674968236
O       -6.6656075215   -1.7429806067    2.8685574269
O       -6.1574040408   -1.0353121277    4.9399902464
H       -0.0496264397    0.0854077339   -0.0855588838
H       -1.8363517083   -1.6118525311    0.1719962292
H       -1.6763817120    2.2719577076    3.2740299297
H       -4.1416067599    1.0567204753    4.3541450630
H        0.7452200131    2.6687860700    3.5113451403
H        2.1079431468    3.0991968943    2.4545322994
H        1.7388977344    1.3922638821    2.7731811390
H       -0.8231941541    4.0764319545    1.9635920501
H       -0.8615304752    3.6942846143    0.2275223476
H        0.5740162797    4.4594068569    0.9370344591
H        0.9822701860    2.0725574268    0.5212719343
H       -4.1575851733   -2.2098152985    1.6391480698
H       -7.0704160814   -1.3480569373    5.0422306687
28   

C       -0.8191412120    0.2272797563    0.6715786737
C       -1.8334233103   -0.7304161775    0.8032395648
C       -1.7038804374    1.4415345438    2.5784260838
C       -3.8450890314    0.3524985424    3.5947048168
C       -2.7118432826    0.4796941546    2.6951717076
C       -0.7369674631    1.3263341542    1.5534607664
C       -2.7672352357   -0.5837427801    1.8212129885
C       -4.5345213537   -0.7925578969    3.2365307664
C       -5.8312240936   -1.3082785185    3.6743937770
C        1.2859689283    2.3634041027    2.6014539392
C       -0.2198963670    3.7442829162    1.1185283101
C        0.3639799247    2.3524587461    1.3797408435
N       -3.8663924738   -1.3734412801    2.1341204313
O       -6.5694137211   -1.9889497970    2.9756171731
O       -6.2046952953   -0.9015005288    4.9101983886
H       -0.0935717743    0.1156995253   -0.1259035406
H       -1.8951545662   -1.5677117191    0.1196291578
H       -1.6799575211    2.2729169872    3.2719241360
H       -4.1330555606    1.0473620539    4.3743038310
H        0.7373071684    2.6497581689    3.5037759582
H        2.1048203030    3.0737587315    2.4508288331
H        1.7161427190    1.3684657668    2.7542139666
H       -0.8168989282    4.0870777707    1.9688680713
H       -0.8576470943    3.7224089746    0.2290755194
H        0.5853069716    4.4655143824    0.9470876225
H        0.9680735189    2.0781550090    0.5083389007
H       -4.1998176340   -2.1830247049    1.6150628071
H       -7.0835704473   -1.2893506791    5.0484064856
28   

C       -0.8908736196    0.2300979212    0.6208646613
C       -1.9188700050   -0.7134182253    0.7474851728
C       -1.7422719174    1.4321052829    2.5507070642
C       -3.8808115058    0.3506523709    3.5824137867
C       -2.7634872430    0.4838179234    2.6633758961
C       -0.7848731999    1.3155520198    1.5169112971
C       -2.8420915634   -0.5664241855    1.7749219248
C       -4.5873763992   -0.7815025797    3.2157750104
C       -5.8371037687   -1.3473621823    3.7156515751
C        1.2532111443    2.3147250137    2.5758928738
C       -0.2276560231    3.7250713413    1.0953546837
C        0.3339326394    2.3235393407    1.3518063238
N       -3.9432575516   -1.3506574911    2.0936547043
O       -6.4818163694   -2.2064048139    3.1287967693
O       -6.2681295554   -0.8125062998    4.8822381353
H       -0.1720627523    0.1169862946   -0.1824999000
H       -1.9972021517   -1.5420426567    0.0550530344
H       -1.6982889443    2.2519859463    3.2568094948
H       -4.1368772194    1.0229423782    4.3924189425
H        0.7078636492    2.6074814674    3.4781429894
H        2.0842825175    3.0116611192    2.4295162411
H        1.6663332930    1.3122241691    2.7263193861
H       -0.8229343813    4.0720464420    1.9452360345
H       -0.8622528261    3.7169760262    0.2034205383
H        0.5889696879    4.4348955657    0.9305522363
H        0.9361844701    2.0432376845    0.4810378649
H       -4.2759734901   -2.1706021382    1.5901491701
H       -7.1027073504   -1.2687510982    5.0754415136
28   

C       -0.9242982845    0.2957632711    0.5687668706
C       -1.9643005991   -0.6367166538    0.6774074496
C       -1.7570472032    1.4679613433    2.5249649898
C       -3.8931746733    0.3776671001    3.5531632264
C       -2.7894559491    0.5299501575    2.6205539864
C       -0.8026225222    1.3604747472    1.4874096794
C       -2.8834676458   -0.4997279456    1.7098119329
C       -4.6110752842   -0.7411827637    3.1681267914
C       -5.8023309394   -1.3745190379    3.7238753191
C        1.2434414273    2.3144847981    2.5756823913
C       -0.2071455774    3.7656576634    1.1045745324
C        0.3328209682    2.3532172147    1.3453705777
N       -3.9849730316   -1.2852651938    2.0236562409
O       -6.3227331952   -2.3789757096    3.2558742072
O       -6.3065837465   -0.7606171364    4.8201214110
H       -0.2068651492    0.1888045290   -0.2366683874
H       -2.0524083723   -1.4517028505   -0.0298830858
H       -1.6990276027    2.2699956679    3.2502941104
H       -4.1200566811    1.0162631010    4.3983812957
H        0.6968251612    2.6040323584    3.4781784007
H        2.0859928980    3.0005030258    2.4440075859
H        1.6404523905    1.3040194095    2.7159388010
H       -0.8047044484    4.1081942979    1.9546791841
H       -0.8345247161    3.7787629283    0.2076180069
H        0.6204685613    4.4663504462    0.9564573223
H        0.9375648919    2.0760033818    0.4753413836
H       -4.3057215841   -2.1159644528    1.5298939661
H       -7.0822978221   -1.2878551025    5.0697343853
