24   

C       -4.2534857303   -1.0923242666    5.2354981306
C       -4.4072098081   -0.5769537578    3.9335698599
C       -2.0772033788   -1.5831338758    4.7813886199
C       -2.2078636372   -1.0693911026    3.4642396111
C       -1.1513787710   -0.5771747403    1.2116694518
C       -0.0365808365   -0.5511808993    0.4173173485
C       -1.0318912658   -1.0975458541    2.5615122465
C       -0.9539103590    0.9614747191   -1.2966597385
C        1.3946642103    0.0113694599   -1.4857862960
N       -3.0894700641   -1.6007588914    5.6753562981
N       -3.4001020691   -0.5586883747    3.0426397921
N        0.1311845658    0.1350126058   -0.7389896955
O        0.0352564102   -1.5613261088    2.9578164405
H       -5.1062357808   -1.0767141618    5.9038390475
H       -5.3716276104   -0.1805634479    3.6384568870
H       -1.1226701693   -1.9852372560    5.1009314826
H       -2.0825149802   -0.1364399981    0.8857074969
H        0.8384182313   -1.0821347385    0.7850101099
H       -1.3010773751    1.6871010019   -0.5541984344
H       -1.7912554670    0.3273827120   -1.6055245222
H       -0.6035533954    1.5169910998   -2.1722935793
H        1.2649320566   -0.6738505930   -2.3298111203
H        2.1932038325   -0.3740746382   -0.8437754932
H        1.7117701771    0.9887791301   -1.8625800148
24   

C       -4.2321398685   -1.0184334702    5.2397836972
C       -4.4227923018   -0.6467883367    3.8945196747
C       -2.0484075014   -1.4872922093    4.7980440616
C       -2.2158736652   -1.1168324929    3.4377670846
C       -1.2022955628   -0.8069492570    1.1327491529
C       -0.0831200804   -0.7225167118    0.3445910135
C       -1.0511098473   -1.1927808280    2.5234116666
C       -0.9490316293    0.9947062657   -1.1926674412
C        1.3969344290    0.0508986997   -1.4444517229
N       -3.0456799937   -1.4429450645    5.7078372301
N       -3.4306764597   -0.6903776936    2.9878254296
N        0.1175053245    0.0964684538   -0.7163210281
O        0.0386603271   -1.5742366102    2.9448449397
H       -5.0742101061   -0.9582803814    5.9190493423
H       -5.4038900265   -0.3125913449    3.5781402407
H       -1.0758840497   -1.8224513401    5.1397927018
H       -2.1488337627   -0.4115500632    0.7929659298
H        0.7926421701   -1.2635903674    0.6956511903
H       -1.3281418775    1.6080842707   -0.3690313532
H       -1.7709842992    0.4114765600   -1.6202159035
H       -0.5675190684    1.6690598306   -1.9658154572
H        1.2837051688   -0.5340663327   -2.3630200500
H        2.1796512951   -0.4090525836   -0.8327514791
H        1.7255133266    1.0626358724   -1.7017995816
24   

C       -4.1910277207   -0.9197449772    5.2363377871
C       -4.4145006274   -0.6940723281    3.8640326132
C       -1.9946534859   -1.3391780795    4.8070332978
C       -2.1950752631   -1.1150117622    3.4196170654
C       -1.2221540780   -0.9951239950    1.0789230888
C       -0.1104440819   -0.8616522626    0.2803462004
C       -1.0389014641   -1.2300990674    2.4984524936
C       -0.9411121391    1.0288001809   -1.0563375979
C        1.3948463267    0.0870320481   -1.4008715859
N       -2.9815079832   -1.2451185105    5.7244532092
N       -3.4328950531   -0.7875668536    2.9497706149
N        0.1101841978    0.0671360986   -0.6809429263
O        0.0735537492   -1.5155194157    2.9360108282
H       -5.0262854382   -0.8261472612    5.9202186321
H       -5.4128887621   -0.4342429978    3.5322653280
H       -1.0041249544   -1.5966871286    5.1640364951
H       -2.1866049597   -0.6547315491    0.7296377163
H        0.7679551771   -1.4145167680    0.6057625068
H       -1.3373378858    1.5289472112   -0.1668221644
H       -1.7552549643    0.5140232767   -1.5765903804
H       -0.5384546922    1.7984869905   -1.7222930734
H        1.2830142308   -0.3940207888   -2.3780461073
H        2.1680992294   -0.4446505516   -0.8371878812
H        1.7354210759    1.1170450425   -1.5452582872
24   

C       -4.1565241102   -0.8108133319    5.2137524993
C       -4.4051073794   -0.7371085425    3.8292967240
C       -1.9466875065   -1.1666271459    4.7954003167
C       -2.1723555033   -1.0950594361    3.3957717867
C       -1.2278250986   -1.1769450052    1.0417766891
C       -0.1363085179   -1.0005074660    0.2132370898
C       -1.0210837146   -1.2459163426    2.4735240764
C       -0.9492708436    1.0297842775   -0.9039726645
C        1.3673248360    0.0945173248   -1.3771030582
N       -2.9274531326   -1.0268568182    5.7136107483
N       -3.4297308445   -0.8769269003    2.9143528113
N        0.0891567358    0.0159717419   -0.6496483034
O        0.1106365551   -1.4230836480    2.9183143082
H       -4.9882001284   -0.6875765720    5.8973029084
H       -5.4182545367   -0.5594797281    3.4881677698
H       -0.9409997099   -1.3390743810    5.1611123430
H       -2.2124904382   -0.9074987766    0.6866154463
H        0.7474674768   -1.5658162200    0.5003301931
H       -1.3438708491    1.4192941440    0.0399666209
H       -1.7672085670    0.5943567304   -1.4868737129
H       -0.5343140548    1.8724464631   -1.4659174246
H        1.2361822347   -0.2659278935   -2.4026047606
H        2.1343513305   -0.5154540526   -0.8893230077
H        1.7283868841    1.1273277765   -1.4034109463
24   

C       -4.1297859360   -0.7228209049    5.1690044004
C       -4.3950040673   -0.8062037377    3.7882607461
C       -1.9052541683   -0.9787867869    4.7545470853
C       -2.1476240469   -1.0648709804    3.3586366016
C       -1.2183900738   -1.3388691455    1.0146078211
C       -0.1552188538   -1.1293624677    0.1424300428
C       -0.9971777362   -1.2357045441    2.4386459039
C       -0.9374929744    1.0226012579   -0.7296967273
C        1.3308565294    0.0748546030   -1.3800344616
N       -2.8848314283   -0.8085884383    5.6689803477
N       -3.4208522083   -0.9768095840    2.8773453451
N        0.0728800027   -0.0445770503   -0.6234618472
O        0.1485329362   -1.2880704778    2.8791929053
H       -4.9616090169   -0.5835136864    5.8492828505
H       -5.4204073658   -0.7280747692    3.4464100534
H       -0.8872951434   -1.0497574143    5.1200501199
H       -2.2231907548   -1.1604574043    0.6581506174
H        0.7283942500   -1.7213848023    0.3688609892
H       -1.2951585089    1.3128478584    0.2634586915
H       -1.7840671409    0.6824407557   -1.3345747266
H       -0.5085672742    1.9117426281   -1.2024703569
H        1.1547780399   -0.1551309984   -2.4359000492
H        2.0876457196   -0.6163733377   -0.9956202893
H        1.7314038076    1.0898615497   -1.2958454357
24   

C       -4.1395134815   -0.9097505927    5.3196895259
C       -4.4542552074   -1.3094039457    4.0062973160
C       -2.1238669547   -0.1347494861    4.5978047939
C       -2.4162074747   -0.5333668797    3.2668664212
C       -1.6524061687   -0.7380593230    0.8556710597
C       -0.5977991070   -0.9828354996   -0.0419927085
C       -1.3905066287   -0.3283084912    2.2149040421
C       -0.2483705212    1.3597700700   -0.6108185121
C        0.9705230037   -0.4926997555   -1.8447792825
N       -2.9749429094   -0.3149906293    5.6310948845
N       -3.6099193514   -1.1256062805    2.9760201850
N       -0.0331895475   -0.0787168568   -0.8505829540
O       -0.2998921944    0.1556677575    2.5055158989
H       -4.8638098821   -1.0913786342    6.1048746079
H       -5.4090790273   -1.7865066037    3.8190769462
H       -1.1700576748    0.3330301806    4.8130384421
H       -2.5795777660   -1.2678385471    0.6871625665
H       -0.4878548095   -2.0189490005   -0.3485196206
H       -1.3166896867    1.5781708542   -0.5150561493
H        0.1385227318    1.9495071105   -1.4476450181
H        0.2672588285    1.6727319469    0.3028611429
H        0.7433287137   -0.0479485648   -2.8186688126
H        0.9815683186   -1.5807158729   -1.9641410473
H        1.9676162831   -0.1717934230   -1.5260757602
24   

C       -4.0864011170   -0.8308003832    5.3035165209
C       -4.4016922610   -1.3390331843    4.0283442088
C       -2.1120445410   -0.0356666729    4.4952331446
C       -2.4053842858   -0.5424428535    3.2014543366
C       -1.6704110245   -0.8971669345    0.8017764989
C       -0.6427459250   -1.0746836508   -0.1276012808
C       -1.4059907922   -0.3667819504    2.1185802547
C       -0.2828949740    1.3211280255   -0.5256158607
C        0.9838149711   -0.4431922951   -1.8308854969
N       -2.9418905426   -0.1713836046    5.5522651991
N       -3.5780156813   -1.2012327765    2.9743729462
N       -0.0356841461   -0.1021281923   -0.8251401556
O       -0.3404368543    0.1935406950    2.3611025455
H       -4.7935404002   -0.9796414417    6.1109216515
H       -5.3402102667   -1.8632562967    3.8915578425
H       -1.1754039902    0.4839905123    4.6612736197
H       -2.5507380014   -1.5166274767    0.7010024435
H       -0.5776248337   -2.0690531815   -0.5594802885
H       -1.3429837833    1.4970178996   -0.3176528894
H       -0.0085837803    1.9437696192   -1.3827485288
H        0.3120865386    1.6376053543    0.3367665277
H        0.8043597986    0.1124038927   -2.7566116666
H        0.9610606590   -1.5113140727   -2.0689935605
H        1.9803665343   -0.1961035616   -1.4505978621
24   

C       -4.0703723445   -0.7897649278    5.2711355315
C       -4.3643971663   -1.3798804410    4.0265655812
C       -2.1193414372    0.0206928376    4.4225997689
C       -2.3916670365   -0.5674528416    3.1587286167
C       -1.6434146842   -1.0349694144    0.7869596276
C       -0.6717114441   -1.1362251631   -0.2011565663
C       -1.3992329374   -0.4120430837    2.0656800810
C       -0.3063398985    1.2885290019   -0.4851704345
C        0.9921891606   -0.4174756751   -1.8290986920
N       -2.9480999237   -0.0816044520    5.4842511535
N       -3.5414053244   -1.2765858490    2.9681387917
N       -0.0237050764   -0.1245103156   -0.8044243313
O       -0.3601874369    0.2055288478    2.2813936710
H       -4.7760043136   -0.9138056602    6.0840306361
H       -5.2859142859   -1.9396118593    3.9178030285
H       -1.2012125891    0.5799837506    4.5608997565
H       -2.4817980871   -1.7153974649    0.7311669780
H       -0.6438887447   -2.0892771046   -0.7212344116
H       -1.3509606370    1.4229162733   -0.1878910761
H       -0.1335468043    1.9183453819   -1.3631880453
H        0.3463215005    1.6342837724    0.3224707098
H        0.8389416194    0.2145505221   -2.7094270287
H        0.9374208945   -1.4618788644   -2.1520979747
H        1.9928394844   -0.2332322658   -1.4247871061
24   

C       -4.0643310605   -0.7850716965    5.2646950402
C       -4.3172691174   -1.4486720517    4.0484853441
C       -2.1369432735    0.0620975531    4.3981926726
C       -2.3687920368   -0.5981252031    3.1619624724
C       -1.5839466990   -1.1410987087    0.8205544347
C       -0.6917623998   -1.1569314940   -0.2359213362
C       -1.3770794820   -0.4434855110    2.0676102065
C       -0.3212408995    1.2827365188   -0.4374763932
C        0.9796294652   -0.3796696163   -1.8268264898
N       -2.9743960216   -0.0220190333    5.4546308337
N       -3.4851708334   -1.3645847457    2.9955259929
N       -0.0133507653   -0.1221979762   -0.7701481082
O       -0.3744738441    0.2368501591    2.2639983767
H       -4.7758762699   -0.8960934781    6.0743094540
H       -5.2143236806   -2.0497674149    3.9573990593
H       -1.2457451366    0.6673097934    4.5180199815
H       -2.3750569207   -1.8778659722    0.8005808396
H       -0.6998627536   -2.0717221468   -0.8213477370
H       -1.3525371544    1.3874022939   -0.0867865539
H       -0.2128083906    1.9162949824   -1.3229952058
H        0.3619841063    1.6491667090    0.3350859084
H        0.8488111841    0.3238082470   -2.6550796432
H        0.8747679693   -1.3921488702   -2.2293251932
H        1.9908560773   -0.2710122277   -1.4215820232
24   

C       -4.0802512305   -0.7797639562    5.2845519458
C       -4.2723509598   -1.5103118729    4.0959561079
C       -2.1776543326    0.1225629442    4.4189294082
C       -2.3491979598   -0.6031097752    3.2096785154
C       -1.4985354885   -1.1997773682    0.9056888591
C       -0.6867210470   -1.1501980025   -0.2079793935
C       -1.3497780076   -0.4371435998    2.1234417667
C       -0.2497546431    1.2842168038   -0.3635867999
C        0.9918161478   -0.3811929181   -1.7937935479
N       -3.0332549592    0.0441152137    5.4611913938
N       -3.4216149562   -1.4329087756    3.0575103522
N        0.0381600647   -0.1236503713   -0.7009454782
O       -0.3945188709    0.3106344632    2.3071754818
H       -4.8045682352   -0.8880217543    6.0831387858
H       -5.1371618650   -2.1581901783    4.0142573094
H       -1.3216988257    0.7785268655    4.5280289129
H       -2.2439465569   -1.9830069520    0.9122222598
H       -0.7390450968   -2.0376659925   -0.8319899400
H       -1.2720491427    1.3979757305    0.0098979107
H       -0.1559717599    1.9163060128   -1.2518085888
H        0.4548350089    1.6456962163    0.3920124712
H        0.8280165889    0.3193048845   -2.6187798430
H        0.8769381483   -1.3953521694   -2.1893337902
H        2.0171411606   -0.2688659063   -1.4269839712
24   

C       -4.1094083753   -0.8451888076    5.2762669087
C       -4.2331914434   -1.6263877801    4.1110972771
C       -2.2482260218    0.1418102444    4.4130968046
C       -2.3521501133   -0.6327181461    3.2264508821
C       -1.4375818495   -1.2360624583    0.9483084519
C       -0.7074214669   -1.1301505869   -0.2149245612
C       -1.3507522965   -0.4327926589    2.1469945195
C       -0.1227075382    1.2774788775   -0.3201442377
C        0.9586044471   -0.4134402995   -1.8363352773
N       -3.1174953928    0.0461545224    5.4425345703
N       -3.3684954942   -1.5323432503    3.0856369534
N        0.0783114649   -0.1372382502   -0.6875251050
O       -0.4528608836    0.3839883324    2.3215149579
H       -4.8422433587   -0.9693135494    6.0647097973
H       -5.0558305486   -2.3278522438    4.0367319750
H       -1.4375837447    0.8542689187    4.5135435467
H       -2.1425438873   -2.0556019354    0.9707216471
H       -0.8188779459   -1.9917392458   -0.8669268722
H       -1.1366856003    1.4446556997    0.0560551447
H        0.0087807594    1.9215682476   -1.1949197046
H        0.6048640354    1.5799750455    0.4396119682
H        0.7075079925    0.2417695894   -2.6765746304
H        0.8569106312   -1.4493842009   -2.1750520662
H        2.0031781534   -0.2498416357   -1.5527713376
24   

C       -4.1610916727   -1.0384335777    5.2441536094
C       -4.0862544419   -1.9025396312    4.1351159318
C       -2.6517490993    0.3524635054    4.2581080949
C       -2.5567398376   -0.5028557805    3.1272710779
C       -1.5270759145   -0.9974824839    0.8717003549
C       -0.7970772749   -0.9363281863   -0.3019619378
C       -1.6409912070   -0.1278209898    2.0157443199
C        0.3772182008    1.2555193848   -0.2984969057
C        0.6943010824   -0.4091359221   -2.1546179897
N       -3.4475853281    0.0978898658    5.3195834549
N       -3.2958309604   -1.6493519795    3.0774496704
N        0.0823792326   -0.0751386148   -0.8552301653
O       -0.9877746347    0.9032367828    2.1186463649
H       -4.8183597340   -1.3025866811    6.0641019118
H       -4.6863410830   -2.8049200269    4.1331455955
H       -2.0612828429    1.2608190960    4.2886829991
H       -2.1367240160   -1.8886483869    0.9241431332
H       -0.9811646269   -1.8191598229   -0.9074505277
H        0.9059350815    1.8693775438   -1.0338422443
H        1.0159561172    1.1665923188    0.5855369219
H       -0.5467741490    1.7859011288   -0.0541186256
H        0.5012145602    0.3888126302   -2.8789107439
H        0.2836782646   -1.3370242429   -2.5651103812
H        1.7754215468   -0.5353566063   -2.0388500893
24   

C       -4.0074253422   -0.9153799750    5.3366429068
C       -3.7832005925   -1.9201997411    4.3757740965
C       -2.9579900380    0.5962936212    3.9962150326
C       -2.7172289954   -0.3996997317    3.0119025740
C       -1.7574556139   -1.0296602556    0.7596176500
C       -1.0039566311   -0.9402337189   -0.3901528568
C       -1.9841780122   -0.0257730684    1.7746067114
C        0.7454099829    0.7197587815    0.1865088331
C        0.3726813145   -0.0398019753   -2.1824453882
N       -3.5995767865    0.3528305911    5.1596628835
N       -3.1446748688   -1.6792614613    3.2171747448
N       -0.0712110578   -0.0422867246   -0.7774563231
O       -1.6251043988    1.1381453391    1.6327209076
H       -4.5271659148   -1.1777504246    6.2504965070
H       -4.1363817949   -2.9246683004    4.5773278601
H       -2.6127661464    1.6090643674    3.8231704707
H       -2.2746710942   -1.9698505557    0.8924208957
H       -1.1830990852   -1.7592313422   -1.0808157598
H        1.7825148164    0.7821899335   -0.1568328171
H        0.7568164067    0.2292539491    1.1647264185
H        0.3580592343    1.7381181722    0.2913687425
H        0.1518618020    0.9293804069   -2.6409541517
H       -0.1388519311   -0.8145534013   -2.7623901186
H        1.4491094055   -0.2292865407   -2.2436836201
24   

C       -3.9779887078   -0.9011044052    5.3082465315
C       -3.6837811465   -1.9395614040    4.4035661270
C       -2.9952044920    0.5969939795    3.9035811554
C       -2.6863100924   -0.4327166784    2.9748123138
C       -1.6850483990   -1.1161754510    0.7567956178
C       -1.0075441760   -0.9746170104   -0.4359365312
C       -1.9688567400   -0.0803336883    1.7229003558
C        0.8101984486    0.5707816780    0.2341363284
C        0.3965184203   -0.0232756876   -2.1818587742
N       -3.6384947027    0.3773837733    5.0708158993
N       -3.0433133114   -1.7224001142    3.2413280503
N       -0.0246743276   -0.1127598080   -0.7730684033
O       -1.6758429968    1.0935346293    1.5188929881
H       -4.4965484427   -1.1451854358    6.2278206826
H       -3.9835954656   -2.9506982931    4.6526218027
H       -2.7066733889    1.6177142133    3.6805654034
H       -2.1603439810   -2.0736934712    0.9192530449
H       -1.2270527603   -1.7517569238   -1.1622924540
H        1.8552427829    0.5948657908   -0.0892395219
H        0.7787151105    0.0449233787    1.1933056154
H        0.4694339092    1.6014760227    0.3740849504
H        0.0951769199    0.9427272325   -2.5995832781
H       -0.0600918793   -0.8157904910   -2.7831840522
H        1.4831672857   -0.1257087419   -2.2644926455
24   

C       -3.9595288241   -0.8557439017    5.3282156287
C       -3.5980838820   -1.9146278298    4.4728542230
C       -3.0232239634    0.6301663609    3.8795299321
C       -2.6488243712   -0.4201020616    2.9993622267
C       -1.5889240426   -1.1393006235    0.8193245903
C       -1.0172925371   -0.9482983975   -0.4253713325
C       -1.9398225760   -0.0829904797    1.7389328737
C        0.8515556719    0.5268267686    0.2534522083
C        0.3847544614    0.0027116971   -2.1741543025
N       -3.6765109518    0.4270237509    5.0441765296
N       -2.9463744357   -1.7139310123    3.3138910240
N        0.0032157822   -0.1335389960   -0.7582619303
O       -1.7101517457    1.0949820738    1.4814893115
H       -4.4847947909   -1.0870760410    6.2472800942
H       -3.8549253889   -2.9281010072    4.7578483568
H       -2.7818484848    1.6539067593    3.6176713489
H       -2.0062717293   -2.1166380582    1.0186075050
H       -1.2944117692   -1.6897161429   -1.1691023564
H        1.8915618261    0.5605553311   -0.0850001963
H        0.8350649310   -0.0219969132    1.2000423254
H        0.5106520305    1.5526848364    0.4246811832
H        0.0571562179    0.9751199167   -2.5558676248
H       -0.0745233466   -0.7813958569   -2.7843645437
H        1.4702991788   -0.0788670380   -2.2879100179
24   

C       -3.9707489058   -0.8505168667    5.3386732229
C       -3.5333255091   -1.9131848841    4.5244055141
C       -3.0766847231    0.6402233508    3.8683754408
C       -2.6277466488   -0.4138381345    3.0288339912
C       -1.4873712244   -1.1348547852    0.8876276936
C       -1.0306995169   -0.9030799689   -0.4034627538
C       -1.9192635627   -0.0760583985    1.7687748210
C        0.8846154284    0.5202622227    0.2307875690
C        0.3630213320   -0.0056719541   -2.1889457671
N       -3.7467253698    0.4366586208    5.0233762628
N       -2.8638282318   -1.7119254221    3.3757074896
N        0.0270637522   -0.1544699043   -0.7631780163
O       -1.7523062786    1.1034343149    1.4713300437
H       -4.5075369888   -1.0825466769    6.2508803942
H       -3.7455701738   -2.9301053826    4.8328687637
H       -2.8838001756    1.6671309836    3.5800210638
H       -1.8351514916   -2.1317388924    1.1205513917
H       -1.3834142586   -1.6092147330   -1.1494711980
H        1.9095607653    0.6010471727   -0.1438928668
H        0.9230856772   -0.0466674907    1.1660787042
H        0.5104073692    1.5283312737    0.4346555673
H        0.0772339293    0.9923829211   -2.5366968066
H       -0.1629730019   -0.7477467114   -2.7978380607
H        1.4373935914   -0.1454429495   -2.3442162841
24   

C       -4.0150752110   -0.8741986916    5.3464482649
C       -3.4928842648   -1.9224649723    4.5640279198
C       -3.1631288552    0.6426089310    3.8776609236
C       -2.6304486168   -0.3968440071    3.0699035298
C       -1.3889933995   -1.0804451659    0.9687662336
C       -1.0378564453   -0.8233023927   -0.3585044527
C       -1.9153736038   -0.0392283091    1.8196601056
C        0.9334220135    0.5337664616    0.1897104612
C        0.3413675958   -0.0337906653   -2.2078858314
N       -3.8547248460    0.4187829962    5.0160909780
N       -2.8010146777   -1.7007240881    3.4324928304
N        0.0577879911   -0.1661547357   -0.7693851303
O       -1.8121154976    1.1408134511    1.4955988156
H       -4.5663702933   -1.1226818028    6.2455771797
H       -3.6570876476   -2.9450930908    4.8827939120
H       -3.0214615654    1.6740033874    3.5759045780
H       -1.6556600854   -2.0951817761    1.2296395970
H       -1.4863737882   -1.4871920134   -1.0917263772
H        1.9240848520    0.6946201169   -0.2465466064
H        1.0675174284   -0.0597024422    1.0995398214
H        0.5085956376    1.5075727912    0.4525485388
H        0.1340375364    0.9898786474   -2.5363716526
H       -0.2791018585   -0.7167852951   -2.7966418956
H        1.3902559998   -0.2711219821   -2.4112714594
24   

C       -4.0763379398   -0.9510851855    5.3574147571
C       -3.4489327908   -1.9579056485    4.5981670313
C       -3.3017032769    0.6225865026    3.9054898454
C       -2.6648759339   -0.3748517275    3.1210654271
C       -1.3085930983   -0.9621513571    1.0583168571
C       -1.0323479562   -0.7064833314   -0.2967186934
C       -1.9521130029    0.0311661123    1.8850022836
C        1.0140373682    0.5438888301    0.1305317772
C        0.3156394341   -0.0753270527   -2.2292639280
N       -4.0076462699    0.3493715617    5.0241973194
N       -2.7414712611   -1.6864418974    3.4873308086
N        0.0921035585   -0.1630569018   -0.7768243905
O       -1.9406214834    1.2099629716    1.5408567541
H       -4.6349026386   -1.2390685114    6.2401267498
H       -3.5430181363   -2.9892637391    4.9172529469
H       -3.2330144929    1.6603246958    3.6000779750
H       -1.4573307709   -1.9930690794    1.3477894782
H       -1.6009193355   -1.3061217446   -1.0015148780
H        1.9519237491    0.7778492572   -0.3826799623
H        1.2550269994   -0.0802303078    0.9968880094
H        0.5629537752    1.4802386559    0.4746277498
H        0.2033253426    0.9612634807   -2.5633521153
H       -0.4037337660   -0.6925293856   -2.7767234094
H        1.3216755798   -0.4269490363   -2.4785264891
24   

C       -3.8459784651   -0.9261528510    5.3568843203
C       -2.9461014120   -1.7534116132    4.6571569540
C       -4.0507558576    0.4018348075    3.5183200982
C       -3.1457244916   -0.4164735395    2.7930423678
C       -1.8982447211   -0.8740691575    0.6325614903
C       -1.3021433039   -0.3520241987   -0.5107160412
C       -2.8067528553   -0.0504125972    1.3965498142
C        0.9575113885   -0.1697264005    0.4189717586
C        0.4000272304    0.7270865434   -1.8943544560
N       -4.4092160066    0.1589752765    4.7978703308
N       -2.5895746421   -1.5132691891    3.3831560075
N       -0.0270937566    0.0595036147   -0.6529545642
O       -3.2925903420    0.9538592989    0.8818835010
H       -4.0896852639   -1.1761046378    6.3826755822
H       -2.5236174508   -2.6134451778    5.1633833808
H       -4.4828941774    1.2702205938    3.0345504048
H       -1.3954600674   -1.6725314435    1.1599927784
H       -2.0036274109    0.0846097250   -1.2176848576
H        1.2272103616   -1.2296901463    0.4638337428
H        0.5511866590    0.1420824698    1.3865465926
H        1.8665223705    0.4119467740    0.2361587018
H        1.0313323046    1.5910902020   -1.6647528575
H       -0.4628971613    1.0854288345   -2.4646640652
H        0.9633382939    0.0270400990   -2.5199456129
24   

C       -3.9507363786   -0.9757952188    5.3483195031
C       -2.9333866306   -1.7095086532    4.7075943552
C       -4.2201629509    0.2848868000    3.4712419262
C       -3.1971732412   -0.4395385047    2.8051846718
C       -1.7983620649   -0.7910668878    0.7179543541
C       -1.2554028616   -0.2463725925   -0.4298881545
C       -2.8383411926   -0.0645586309    1.4161157633
C        1.0814936084   -0.2561708431    0.3249284914
C        0.4147058684    0.7616831462   -1.9076459296
N       -4.6063727142    0.0277479430    4.7398402239
N       -2.5487995856   -1.4550301553    3.4445575659
N        0.0357580774    0.0866061450   -0.6547459977
O       -3.4149840146    0.8648164440    0.8559472236
H       -4.2107715033   -1.2318316328    6.3685850836
H       -2.4408583903   -2.5067687428    5.2518266927
H       -4.7243086074    1.0898865769    2.9490461298
H       -1.2344566445   -1.5259629399    1.2749436943
H       -1.9758540169    0.2301663025   -1.0908914553
H        1.2637330157   -1.3355988834    0.3203758185
H        0.7821876144    0.0568938117    1.3303387846
H        2.0186768334    0.2540079855    0.0810985329
H        1.1363536461    1.5597999791   -1.7076690223
H       -0.4583407682    1.2133648776   -2.3894131629
H        0.8602211751    0.0404673457   -2.6005629524
24   

C       -4.0268565851   -1.0458435355    5.3525521967
C       -2.9124184138   -1.6762224932    4.7653990859
C       -4.3376556097    0.1690378525    3.4521003900
C       -3.2172616554   -0.4515873681    2.8398221569
C       -1.6902465153   -0.6684362830    0.8245126522
C       -1.2055934150   -0.1196954082   -0.3397044608
C       -2.8377482657   -0.0525357718    1.4631490945
C        1.1808695212   -0.3083576837    0.2266166691
C        0.4148164036    0.7712103286   -1.9435940879
N       -4.7526161150   -0.1179150861    4.7050349246
N       -2.4984564301   -1.3914911025    3.5181057370
N        0.0877957243    0.1209706189   -0.6632451466
O       -3.4875674500    0.8033237451    0.8667325657
H       -4.3057908308   -1.3208009221    6.3628506789
H       -2.3674322629   -2.4164777317    5.3393076910
H       -4.8968321626    0.9154607273    2.8997552986
H       -1.0792438465   -1.3488315538    1.4005046578
H       -1.9440014628    0.3756490187   -0.9662257838
H        1.2617420147   -1.4001195386    0.2255607481
H        1.0022305136    0.0416876866    1.2483470013
H        2.1358872730    0.1085083583   -0.1083691765
H        1.2183888030    1.5014303787   -1.8064272918
H       -0.4537142447    1.3019141780   -2.3465293843
H        0.7336530551    0.0199444658   -2.6734778378
24   

C       -4.1020043635   -1.1253110973    5.3346092774
C       -2.9029325909   -1.6437272462    4.8076848045
C       -4.4357222427    0.0490573342    3.4128249947
C       -3.2305479383   -0.4593804026    2.8608534240
C       -1.5919901629   -0.5338276721    0.9257402065
C       -1.1515387412   -0.0024913018   -0.2593363654
C       -2.8262820690   -0.0314188366    1.4999832321
C        1.2482033593   -0.3905732256    0.1312684721
C        0.4143605424    0.7300517735   -1.9916447409
N       -4.8823135189   -0.2747097712    4.6457080185
N       -2.4571796941   -1.3220110781    3.5804689059
N        0.1306334915    0.1237472106   -0.6797407314
O       -3.5314345358    0.7502100974    0.8655036144
H       -4.4028851823   -1.4247609358    6.3315572319
H       -2.3173657409   -2.3258367873    5.4128096268
H       -5.0379547631    0.7350028782    2.8282613328
H       -0.9497719424   -1.1671927039    1.5208380876
H       -1.8986696841    0.5063981759   -0.8641401347
H        1.2195355350   -1.4845210653    0.1631080253
H        1.1940221224    0.0045911826    1.1506998739
H        2.2076457320   -0.0841648127   -0.2972755967
H        1.2818712644    1.3940026036   -1.9253381746
H       -0.4357867462    1.3250836453   -2.3403081599
H        0.6175132895   -0.0530764914   -2.7293516495
24   

C       -4.2876187012   -1.1537676972    5.2364031512
C       -4.3654779057   -0.4344070970    4.0278014420
C       -2.1669722563   -1.7966579508    4.7140628111
C       -2.2217166650   -1.0788094842    3.4903036382
C       -1.0817599591   -0.3640804278    1.3403986046
C       -0.0069655727   -0.4473399251    0.4962869455
C       -1.0405879459   -1.0945406155    2.5940329725
C       -1.1367493156    0.4858143787   -1.4835109175
C        1.3048885466   -0.2126533363   -1.5555608780
N       -3.1902228064   -1.8425787348    5.5944128840
N       -3.3474455985   -0.3880136551    3.1504080621
N        0.0416192895   -0.0866183743   -0.8087986407
O       -0.0342095709   -1.7227768998    2.9156972043
H       -5.1450302527   -1.1496525985    5.8989235298
H       -5.2785093642    0.1012036735    3.7958246033
H       -1.2648795037   -2.3407845125    4.9691802922
H       -1.9844559826    0.1533915344    1.0490636653
H        0.8897441109   -0.9188503781    0.8916677591
H       -1.3798617494    1.4633963838   -1.0547383531
H       -1.9979426046   -0.1818836066   -1.3794331699
H       -0.9413693932    0.6194028704   -2.5521849158
H        1.1161368397   -0.6027130399   -2.5605939113
H        1.9899771090   -0.9028524362   -1.0528743290
H        1.7914911244    0.7648740701   -1.6354840801
24   

C       -4.2752386674   -1.1564974072    5.2388902316
C       -4.3921308919   -0.5143978232    3.9905786170
C       -2.1137191842   -1.6875923964    4.7603167920
C       -2.2075988286   -1.0471696708    3.4965839937
C       -1.1081744482   -0.3966032440    1.3068941756
C       -0.0100437265   -0.4225271490    0.4893267757
C       -1.0238906758   -1.0417877648    2.6034543446
C       -1.0194925257    0.8580498751   -1.3553289096
C        1.3436789075   -0.0572049008   -1.5146170381
N       -3.1373162311   -1.7495531863    5.6392780604
N       -3.3736428773   -0.4517055782    3.1147355995
N        0.1003436170    0.1199367658   -0.7447931056
O        0.0175923049   -1.5871848178    2.9624713896
H       -5.1355403161   -1.1711577334    5.8975028417
H       -5.3368408423   -0.0544713840    3.7254224229
H       -1.1799691345   -2.1565811750    5.0485642831
H       -2.0258349768    0.0857387306    1.0025765225
H        0.8708527775   -0.9387979674    0.8636132401
H       -1.3293236320    1.6845820408   -0.7078744463
H       -1.8686148134    0.1873974261   -1.5221930596
H       -0.7216730839    1.2788263019   -2.3209431928
H        1.1848555433   -0.7785430020   -2.3227130287
H        2.1525896300   -0.4258519241   -0.8756831605
H        1.6643228358    0.8978152967   -1.9425511884
