28   

C       -0.9864761540    0.3276841519    0.5216803648
C       -2.0409891963   -0.5894982589    0.6207768639
C       -1.7878536539    1.4789690401    2.5031740491
C       -3.9210815156    0.3917739006    3.5397769427
C       -2.8339624916    0.5554204696    2.5899656530
C       -0.8416261394    1.3740202895    1.4579205084
C       -2.9511445155   -0.4560046971    1.6616303787
C       -4.6570454247   -0.7109892841    3.1426344409
C       -5.7902527125   -1.3931287484    3.7610273493
C        1.2175928206    2.2844662437    2.5628928113
C       -0.2032475048    3.7696906980    1.0968235006
C        0.3123324551    2.3470751047    1.3292423041
N       -4.0551886642   -1.2375221570    1.9770711743
O       -6.1773432009   -2.5078616311    3.4361591648
O       -6.3725061013   -0.7089613473    4.7737806005
H       -0.2746079200    0.2218673716   -0.2888279620
H       -2.1448159931   -1.3924144615   -0.0980851047
H       -1.7103630161    2.2651684741    3.2438558382
H       -4.1130491410    0.9999191931    4.4155385922
H        0.6733966901    2.5783774495    3.4654124134
H        2.0726740489    2.9562261672    2.4385561562
H        1.5962758253    1.2663438253    2.6984050419
H       -0.8001149122    4.1145272541    1.9465158527
H       -0.8254263750    3.7997762014    0.1966672777
H        0.6363238786    4.4580845448    0.9587553315
H        0.9162651530    2.0657761489    0.4599616260
H       -4.3670658774   -2.0779681864    1.4944614945
H       -7.0859033586   -1.2859615787    5.0902318074
28   

C       -0.7192738402    0.1397417133    0.7971890722
C       -1.7289383099   -0.8220157340    0.9346124122
C       -1.8743887240    1.5911841122    2.3631612921
C       -4.0728014776    0.5522982142    3.3072384975
C       -2.8724606333    0.6206556525    2.4923197521
C       -0.7738375506    1.3587545490    1.5067100003
C       -2.7944029214   -0.5598563311    1.7865780800
C       -4.6811426212   -0.6639054536    3.0512502774
C       -5.8041141019   -1.3321243718    3.7081728754
C        1.0247919577    2.6519429953    2.6880809960
C       -0.1997065769    3.6673377323    0.7276982091
C        0.3382213906    2.3751376792    1.3470665160
N       -3.8867059056   -1.3555911215    2.1080803618
O       -5.9340257219   -2.5466154377    3.7764410529
O       -6.6705079394   -0.4928984638    4.3223577150
H        0.1147303316   -0.0669604953    0.1364393032
H       -1.6781862797   -1.7579935229    0.3927936615
H       -1.9509542215    2.5107205126    2.9299937907
H       -4.4115670147    1.2917011449    4.0228191843
H        0.3239089754    3.0858710294    3.4074330348
H        1.8561593093    3.3502197082    2.5496714702
H        1.4227162164    1.7211344719    3.1047132409
H       -0.9495188693    4.1301716062    1.3763737531
H       -0.6598198448    3.4537754054   -0.2423401297
H        0.6158775547    4.3805705316    0.5730029727
H        1.0935594360    1.9681431626    0.6663809403
H       -4.0549855850   -2.3100884501    1.7972188741
H       -7.3326634166   -1.0709867180    4.7338364441
28   

C       -0.7447791677    0.1689093987    0.7511573655
C       -1.7606957049   -0.7879522690    0.8770610118
C       -1.8844900496    1.6035434870    2.3434565084
C       -4.0776410552    0.5582784488    3.2905572827
C       -2.8882763941    0.6375217206    2.4614157039
C       -0.7882446746    1.3768884802    1.4800681745
C       -2.8212519701   -0.5321398828    1.7371827684
C       -4.6936213610   -0.6508097569    3.0216005853
C       -5.7700641126   -1.3410629969    3.7408592179
C        1.0183896416    2.6415774021    2.6820355422
C       -0.1936615150    3.6894512982    0.7311445678
C        0.3326832471    2.3859317737    1.3361571579
N       -3.9124428506   -1.3300955677    2.0578982841
O       -5.7641513957   -2.5341678982    4.0049147043
O       -6.7436401352   -0.5211179130    4.2002395339
H        0.0863641489   -0.0337976972    0.0855808235
H       -1.7168090952   -1.7166389666    0.3222789260
H       -1.9515845313    2.5134368043    2.9268001023
H       -4.3949935082    1.2789990645    4.0343365803
H        0.3197441138    3.0733319339    3.4048481740
H        1.8559323694    3.3343718583    2.5535762566
H        1.4075915838    1.7028310190    3.0889995059
H       -0.9420624425    4.1496059141    1.3833631036
H       -0.6524119986    3.4910669785   -0.2427423490
H        0.6276505500    4.3984259561    0.5876142983
H        1.0866608701    1.9810469258    0.6527115472
H       -4.0700219711   -2.2866366686    1.7490602887
H       -7.3534044617   -1.1000622352    4.6848673843
28   

C       -0.7786741464    0.1824283552    0.7132150483
C       -1.8014141487   -0.7680629438    0.8329297752
C       -1.8948286765    1.6027857818    2.3345066250
C       -4.0827710294    0.5567259811    3.2907124850
C       -2.9050269498    0.6427802684    2.4464676403
C       -0.8068628242    1.3800175813    1.4598178300
C       -2.8533582573   -0.5165508679    1.7049642645
C       -4.7088442116   -0.6439031980    3.0121550669
C       -5.7521873969   -1.3441299480    3.7827636174
C        1.0148688780    2.6164327756    2.6702346876
C       -0.1954012944    3.6952781133    0.7353050225
C        0.3223328887    2.3810121121    1.3240020762
N       -3.9451914576   -1.3134139816    2.0271360227
O       -5.6274556102   -2.4655034200    4.2472446862
O       -6.8407867576   -0.5868571783    4.0499461010
H        0.0464231568   -0.0176460200    0.0393702033
H       -1.7680482299   -1.6895737400    0.2656251444
H       -1.9494959065    2.5038495918    2.9326529061
H       -4.3784487311    1.2626764954    4.0570964937
H        0.3226746776    3.0465864435    3.4001606130
H        1.8578824823    3.3033866141    2.5461818019
H        1.3974849290    1.6701836305    3.0659141658
H       -0.9382844396    4.1537201908    1.3950100265
H       -0.6585931772    3.5113939865   -0.2393179125
H        0.6310397197    4.3993592445    0.5972597725
H        1.0707845243    1.9774696026    0.6337242829
H       -4.1028643681   -2.2665498753    1.7095675446
H       -7.4121344607   -1.1493746789    4.5966219875
28   

C       -0.7910487618    0.1988055412    0.6991771688
C       -1.8160332326   -0.7488845982    0.8218652022
C       -1.8782402955    1.6039127398    2.3530700799
C       -4.0580945481    0.5560275521    3.3260618367
C       -2.8907819492    0.6466646948    2.4678685358
C       -0.8038337930    1.3875283937    1.4601927452
C       -2.8545511519   -0.5036916728    1.7116888682
C       -4.6915295561   -0.6365995712    3.0422404410
C       -5.7436563493   -1.3296083416    3.8250237614
C        1.0375197703    2.6072776701    2.6585957854
C       -0.1944564698    3.7072443640    0.7494319937
C        0.3268700238    2.3861566749    1.3194007692
N       -3.9464136932   -1.2989009546    2.0379771742
O       -5.5533278557   -2.3220947437    4.5044438432
O       -6.9416149530   -0.7024905095    3.8112572859
H        0.0235614373    0.0036875460    0.0112594441
H       -1.7945015144   -1.6633699163    0.2427777146
H       -1.9209204403    2.4981560824    2.9623111938
H       -4.3407020883    1.2558481429    4.1027831051
H        0.3562966713    3.0330553741    3.4012862781
H        1.8810550792    3.2927082347    2.5297389680
H        1.4221879073    1.6563229270    3.0407614153
H       -0.9276515189    4.1615487759    1.4227058228
H       -0.6704916932    3.5336636158   -0.2208879956
H        0.6321675376    4.4103126639    0.6073799392
H        1.0651432290    1.9867531874    0.6158790699
H       -4.1180948532   -2.2410915557    1.6974444604
H       -7.5116222793   -1.2322311760    4.3909280849
28   

C       -0.7409464780    0.1692585723    0.8096227110
C       -1.7429830085   -0.7940328223    0.9852425793
C       -1.7922612596    1.5820449259    2.4806990102
C       -3.9463953113    0.5322985146    3.5148979507
C       -2.7843399534    0.6106135441    2.6464243476
C       -0.7480095014    1.3700546745    1.5513057804
C       -2.7529712355   -0.5516057653    1.9078233540
C       -4.5678453863   -0.6674623433    3.2654296198
C       -5.7607136132   -1.2733499419    3.9280683613
C        1.1326120090    2.6252866816    2.6392160167
C       -0.2263205921    3.7030517195    0.8045537509
C        0.3512314643    2.3915504618    1.3430100448
N       -3.8345863110   -1.3467903910    2.2641972194
O       -5.7207123935   -2.0011817551    4.8993623941
O       -6.9343328485   -0.9422860634    3.3438024423
H        0.0486379670   -0.0207779099    0.0917439863
H       -1.7301239086   -1.7142956117    0.4151273328
H       -1.8323383753    2.4887890655    3.0713709354
H       -4.2577361658    1.2717105591    4.2423206555
H        0.4853168267    3.0345516376    3.4205822762
H        1.9528324075    3.3285003934    2.4642078900
H        1.5580318605    1.6816900867    2.9955378544
H       -0.9255029398    4.1466124293    1.5197874764
H       -0.7562338671    3.5203667191   -0.1357318481
H        0.5781416458    4.4200204316    0.6131555757
H        1.0545402797    2.0063979206    0.5969910181
H       -4.0458276180   -2.2676356943    1.8904278352
H       -7.6149726261   -1.3889338000    3.8716594309
28   

C       -0.7089693433    0.0988105030    0.9152071361
C       -1.6956650914   -0.8701876021    1.1403751817
C       -1.7278886254    1.5384693026    2.5831762052
C       -3.8724605688    0.5156319156    3.6605215502
C       -2.7064157067    0.5625917688    2.7958374920
C       -0.7080181927    1.3160807568    1.6296591478
C       -2.6827782933   -0.6165931253    2.0845224421
C       -4.4942707223   -0.6959417128    3.4531348401
C       -5.8127149268   -1.1594621454    3.9537379226
C        1.2091393148    2.5936977490    2.6136695789
C       -0.2483982511    3.6543937519    0.8461443720
C        0.3667476300    2.3489899905    1.3590880440
N       -3.7651380100   -1.3996624851    2.4652486073
O       -6.0629183745   -1.5071615922    5.0908484677
O       -6.7350551145   -1.2821247779    2.9707696690
H        0.0593717062   -0.0974653564    0.1762760589
H       -1.6937588267   -1.7996230602    0.5852007218
H       -1.7656966298    2.4612123119    3.1487189487
H       -4.2172822199    1.3032526236    4.3191993314
H        0.5960201115    2.9961106839    3.4256406812
H        2.0114851741    3.3058845019    2.3971972714
H        1.6621726527    1.6552932838    2.9489921463
H       -0.9117678974    4.0975739584    1.5948763773
H       -0.8256509626    3.4642799876   -0.0643338174
H        0.5396963491    4.3761458499    0.6097195346
H        1.0343787391    1.9680224090    0.5789306766
H       -4.0316576515   -2.2906023519    2.0559038898
H       -7.5320938299   -1.6126749675    3.4148213918
28   

C       -0.7024388348    0.1239374935    0.9333536587
C       -1.6957353259   -0.8328507080    1.1816359297
C       -1.6877357156    1.5932189586    2.5954252578
C       -3.8328451403    0.6090382497    3.7041335985
C       -2.6732693194    0.6298131812    2.8303946208
C       -0.6811052399    1.3494878318    1.6333324277
C       -2.6692960960   -0.5586963050    2.1341458455
C       -4.4701540256   -0.6024412540    3.5213735214
C       -5.7970469325   -1.0163893167    4.0153400257
C        1.2703778838    2.6043550546    2.5743687571
C       -0.2087886568    3.6823325728    0.8357525881
C        0.3996213576    2.3692488552    1.3375748634
N       -3.7572637825   -1.3244371792    2.5346451249
O       -6.1430820753   -1.0740225870    5.1799780831
O       -6.6004240836   -1.4861663860    3.0304246545
H        0.0550256818   -0.0883282847    0.1876533916
H       -1.7097614318   -1.7685437019    0.6372468204
H       -1.7106026046    2.5230807237    3.1500321037
H       -4.1684421835    1.4123233730    4.3487816887
H        0.6783733656    3.0137151863    3.3984898781
H        2.0763610104    3.3071415422    2.3413414238
H        1.7191605879    1.6607590459    2.9007219588
H       -0.8491779630    4.1363275091    1.5978679037
H       -0.8084051921    3.4989186523   -0.0615339169
H        0.5838455755    4.3927476383    0.5808541942
H        1.0458310602    1.9790458493    0.5440700177
H       -4.0561990266   -2.2055060384    2.1253391081
H       -7.4166666397   -1.7537548318    3.4824691565
28   

C       -0.7184057227    0.1452597537    0.9039014664
C       -1.7218622089   -0.8039468192    1.1405223210
C       -1.6883113818    1.6049004442    2.5834244406
C       -3.8410039543    0.6292100642    3.6840221314
C       -2.6838284152    0.6491774836    2.8069430008
C       -0.6842440284    1.3620963593    1.6185032173
C       -2.6926479044   -0.5311323356    2.0962271171
C       -4.4920259588   -0.5742330348    3.4858596909
C       -5.8049862226   -0.9857437453    3.9977311689
C        1.2762264598    2.5903071127    2.5776105605
C       -0.1866684226    3.6964371805    0.8430071312
C        0.4076878958    2.3735973426    1.3357981042
N       -3.7875377992   -1.2908686230    2.4896238212
O       -6.2134288495   -0.8290928908    5.1335999578
O       -6.5197245017   -1.7061248807    3.0978950698
H        0.0371595015   -0.0661773670    0.1560494633
H       -1.7453943376   -1.7331391257    0.5854249506
H       -1.7011594663    2.5279646472    3.1496224190
H       -4.1645463349    1.4241312426    4.3452471009
H        0.6854467210    2.9990613490    3.4029053486
H        2.0898842518    3.2869822951    2.3530333764
H        1.7145988818    1.6398308199    2.8980792485
H       -0.8260058434    4.1494955499    1.6065828118
H       -0.7843828496    3.5262269992   -0.0581400563
H        0.6133803487    4.4017824782    0.5973781487
H        1.0531568283    1.9838952676    0.5414520729
H       -4.0985402239   -2.1666356520    2.0768791981
H       -7.3381303624   -1.9408787689    3.5644618727
28   

C       -0.7402514989    0.1701286982    0.8631020813
C       -1.7559145483   -0.7711072227    1.0784939043
C       -1.7069496093    1.6166994751    2.5558386400
C       -3.8732862278    0.6455670734    3.6338154792
C       -2.7144802123    0.6689848265    2.7585265027
C       -0.6981051712    1.3762207427    1.5953052714
C       -2.7309718776   -0.5011100584    2.0305901972
C       -4.5359977470   -0.5478606947    3.4122954464
C       -5.8264074028   -0.9786581975    3.9521444807
C        1.2661979613    2.5700760182    2.5906038475
C       -0.1656460244    3.7134653923    0.8542492165
C        0.4085383167    2.3782203731    1.3370693098
N       -3.8336667900   -1.2568536588    2.4095932929
O       -6.2991767223   -0.6495571103    5.0249264598
O       -6.4500870806   -1.8962471275    3.1705922004
H        0.0192302110   -0.0395159180    0.1187240009
H       -1.7846444588   -1.6927012072    0.5111053069
H       -1.7131029398    2.5310490068    3.1361349642
H       -4.1854370128    1.4267120774    4.3167779065
H        0.6715268193    2.9760326608    3.4144779961
H        2.0902231066    3.2597962195    2.3829735469
H        1.6901564447    1.6108673330    2.9043868066
H       -0.8083556664    4.1640953348    1.6164410160
H       -0.7552773103    3.5608822895   -0.0553359498
H        0.6447932699    4.4127666332    0.6260478644
H        1.0581789288    1.9907369915    0.5450445497
H       -4.1429724399   -2.1355288288    2.0009480564
H       -7.2669260328   -2.1117938980    3.6492832854
28   

C       -0.7424235886    0.2164071134    0.8118986915
C       -1.7696429094   -0.7160806440    1.0098208461
C       -1.6911010894    1.6429760858    2.5316721496
C       -3.8616785239    0.6727133667    3.6019861071
C       -2.7097199056    0.7037718508    2.7176218145
C       -0.6855384933    1.4081319115    1.5663194975
C       -2.7412879963   -0.4519363843    1.9669998611
C       -4.5400916984   -0.5068694271    3.3555514157
C       -5.7976079818   -0.9650496595    3.9413779777
C        1.2833909140    2.5726410074    2.5907699418
C       -0.1223263356    3.7447457789    0.8522116478
C        0.4346358932    2.3999956722    1.3281834643
N       -3.8492135419   -1.2043267876    2.3373554288
O       -6.3343521811   -0.5044209199    4.9328328499
O       -6.3298060252   -2.0336785500    3.2950343443
H        0.0149786913    0.0108856337    0.0642624259
H       -1.8088947395   -1.6272363265    0.4264261040
H       -1.6851097982    2.5456455618    3.1299908346
H       -4.1531929840    1.4343846338    4.3155172662
H        0.6865275672    2.9792877606    3.4126879261
H        2.1168263966    3.2546445133    2.3955423362
H        1.6939574256    1.6064479031    2.9008961085
H       -0.7685502810    4.1938054078    1.6123946366
H       -0.7044419956    3.6058407941   -0.0643836201
H        0.6966351771    4.4386163877    0.6383591590
H        1.0875729297    2.0126790848    0.5387950982
H       -4.1547524470   -2.0880026715    1.9362518997
H       -7.1404880465   -2.2395319887    3.7883690872
28   

C       -0.7819192746    0.2344677558    0.7772701123
C       -1.8239803893   -0.6845612603    0.9601144267
C       -1.7179913254    1.6568754970    2.5073607296
C       -3.9008748495    0.7017331899    3.5659915564
C       -2.7512417775    0.7309736011    2.6785079228
C       -0.7109337477    1.4170243698    1.5448248449
C       -2.7965063368   -0.4160177628    1.9151794447
C       -4.5963085683   -0.4641253137    3.3025064698
C       -5.8215452716   -0.9477713425    3.9326791651
C        1.2683498549    2.5402066229    2.5962839506
C       -0.1047016953    3.7504415585    0.8577557117
C        0.4270732360    2.3927633326    1.3253659094
N       -3.9126727266   -1.1597563051    2.2783024823
O       -6.4421167964   -0.3834280649    4.8158495214
O       -6.2440795370   -2.1388346151    3.4365058116
H       -0.0231859593    0.0249662384    0.0320931538
H       -1.8728190269   -1.5897164592    0.3681658537
H       -1.7004001332    2.5519053882    3.1168280033
H       -4.1728552724    1.4494343717    4.3017117065
H        0.6716407874    2.9489505514    3.4172683905
H        2.1141393549    3.2104903484    2.4139889764
H        1.6609885843    1.5648012852    2.9007555787
H       -0.7502607111    4.2022146391    1.6169035589
H       -0.6811954792    3.6292563797   -0.0648793978
H        0.7267777997    4.4333424346    0.6573572713
H        1.0802635858    2.0023521945    0.5377149517
H       -4.2107457167   -2.0525584592    1.8918953884
H       -7.0526759747   -2.3389844088    3.9356193364
28   

C       -0.7995354101    0.2664894287    0.7399255764
C       -1.8511320116   -0.6445951661    0.9071255559
C       -1.7286598824    1.6759151917    2.4843321851
C       -3.9174267811    0.7216335631    3.5317246204
C       -2.7712752923    0.7577790347    2.6400393578
C       -0.7199370913    1.4382854032    1.5229665551
C       -2.8247014779   -0.3787492770    1.8618750099
C       -4.6235517380   -0.4336223820    3.2503700097
C       -5.8116275527   -0.9527619262    3.9237487212
C        1.2641522113    2.5281220384    2.6014252323
C       -0.0832869395    3.7718371695    0.8664798312
C        0.4304580222    2.4036169610    1.3229177681
N       -3.9442847105   -1.1208994182    2.2175439268
O       -6.5321557814   -0.3307616817    4.6834922571
O       -6.1005001355   -2.2350319949    3.5841916478
H       -0.0393052955    0.0584760217   -0.0041428756
H       -1.9053544017   -1.5426155105    0.3048679766
H       -1.7035691428    2.5618249605    3.1067207462
H       -4.1728346197    1.4516147097    4.2907667016
H        0.6663038947    2.9349486943    3.4225244007
H        2.1186993633    3.1907226499    2.4323180519
H        1.6437351844    1.5452435549    2.8983513353
H       -0.7297885609    4.2218990760    1.6258481090
H       -0.6540742474    3.6668366668   -0.0616638117
H        0.7568762377    4.4479621402    0.6798311561
H        1.0852582079    2.0146293533    0.5358978811
H       -4.2287585558   -2.0230755865    1.8430122161
H       -6.9064308895   -2.4450497175    4.0835195454
28   

C       -0.8612249789    0.2761359707    0.7107441735
C       -1.9257569226   -0.6222049905    0.8645132005
C       -1.7672318108    1.6694327427    2.4800110113
C       -3.9605413343    0.7219725115    3.5239744369
C       -2.8223100133    0.7634522215    2.6227421479
C       -0.7635997997    1.4335314945    1.5129043143
C       -2.8939680653   -0.3582180554    1.8252421585
C       -4.6860709524   -0.4163111872    3.2232415021
C       -5.8386814728   -0.9680592267    3.9368512601
C        1.2287373800    2.4896774834    2.6132644920
C       -0.0916887075    3.7615150809    0.8779410403
C        0.4016462712    2.3840935451    1.3285605821
N       -4.0196319413   -1.0937996001    2.1752817609
O       -6.6632245739   -0.3301812168    4.5660720401
O       -5.9840261688   -2.3055261199    3.7584492101
H       -0.1046468297    0.0690411969   -0.0372954709
H       -1.9930301894   -1.5099663180    0.2485222708
H       -1.7275708759    2.5435665286    3.1180812025
H       -4.1913635756    1.4317272437    4.3094887089
H        0.6317339627    2.9003195300    3.4330433988
H        2.0934075503    3.1413626860    2.4533834066
H        1.5929251472    1.5000199826    2.9069247055
H       -0.7389479650    4.2135592289    1.6355137850
H       -0.6563384269    3.6698872230   -0.0553636904
H        0.7580038559    4.4287208437    0.7027254855
H        1.0568623939    1.9916897928    0.5435824345
H       -4.2972175395   -2.0003189566    1.8066357633
H       -6.7865624162   -2.5336280862    4.2551750237
28   

C       -0.8959923719    0.3008809186    0.6801921936
C       -1.9756603598   -0.5814322091    0.8207176172
C       -1.7866490053    1.6909803674    2.4596360490
C       -3.9938153491    0.7631082391    3.4915516086
C       -2.8566661050    0.8006471905    2.5892181510
C       -0.7828308102    1.4483872242    1.4944020992
C       -2.9434182893   -0.3112659426    1.7802375751
C       -4.7373286877   -0.3591525146    3.1767644894
C       -5.8680229722   -0.9306431795    3.9184847065
C        1.2197648397    2.4619963314    2.6171250449
C       -0.0673869905    3.7691799304    0.8830704542
C        0.3997714947    2.3803054927    1.3260203167
N       -4.0788010348   -1.0354566836    2.1225778671
O       -6.8039965676   -0.3109462785    4.3891141453
O       -5.8584121867   -2.2868243989    3.9320880187
H       -0.1392980844    0.0884460877   -0.0662341670
H       -2.0539787690   -1.4625433952    0.1965425443
H       -1.7346051929    2.5570937234    3.1076572931
H       -4.2057939082    1.4601117023    4.2934550127
H        0.6243935265    2.8765736746    3.4360995857
H        2.0964539142    3.1000624177    2.4680892708
H        1.5651582449    1.4641105060    2.9056159480
H       -0.7126157611    4.2256925003    1.6397008105
H       -0.6267198066    3.6942626499   -0.0549117189
H        0.7944601576    4.4235684313    0.7192863337
H        1.0538347927    1.9830244406    0.5425329075
H       -4.3524391971   -1.9440235855    1.7569593543
H       -6.6625394159   -2.5341077620    4.4166625476
28   

C       -0.9227755627    0.3170268649    0.6557836135
C       -2.0110099765   -0.5564418430    0.7843252418
C       -1.8016551579    1.6928773759    2.4520820104
C       -4.0162755048    0.7696781885    3.4731167595
C       -2.8802081903    0.8111061481    2.5697313607
C       -0.7993563642    1.4529673147    1.4845211454
C       -2.9768403658   -0.2890900956    1.7465884326
C       -4.7699200906   -0.3396920674    3.1436219910
C       -5.8940696780   -0.9315941741    3.8932503350
C        1.2088340853    2.4379656759    2.6240053603
C       -0.0601158184    3.7716672654    0.8966484555
C        0.3927935531    2.3749421383    1.3292905867
N       -4.1178605597   -1.0082764501    2.0801673931
O       -6.9383429236   -0.3764327842    4.1773857444
O       -5.7255081595   -2.2543954856    4.1339732866
H       -0.1673221840    0.1065404738   -0.0924568980
H       -2.0968496911   -1.4290958879    0.1493574358
H       -1.7414726492    2.5498387503    3.1114374288
H       -4.2163860465    1.4540344750    4.2886385449
H        0.6146452708    2.8514546872    3.4443683056
H        2.0921076564    3.0688292862    2.4833968450
H        1.5436946646    1.4344585708    2.9053331680
H       -0.7045942346    4.2270500847    1.6546031532
H       -0.6161120419    3.7098563745   -0.0442732672
H        0.8081509568    4.4197996981    0.7421931143
H        1.0462287496    1.9783936982    0.5449009018
H       -4.3919009950   -1.9111860389    1.7022359533
H       -6.5350025424   -2.5279186654    4.5945204103
28   

C       -0.9248554968    0.2881619422    0.6433015757
C       -1.9994528759   -0.6036837354    0.7576569306
C       -1.8372212727    1.6343774986    2.4455861335
C       -4.0482813151    0.6699306682    3.4391282235
C       -2.9027174115    0.7348324663    2.5486124343
C       -0.8248584345    1.4185385709    1.4826098793
C       -2.9752231080   -0.3600044934    1.7160978556
C       -4.7772240244   -0.4476294908    3.0966810807
C       -5.9288305161   -1.0575531594    3.8076997447
C        1.1705790560    2.4090287385    2.6358860712
C       -0.1198628722    3.7599559940    0.9378300381
C        0.3528506906    2.3610934719    1.3418157100
N       -4.1081847143   -1.0986499633    2.0330391060
O       -7.0651516508   -0.6275459136    3.8273465415
O       -5.6285964264   -2.2531990234    4.3665151404
H       -0.1617342771    0.0964366000   -0.1022041251
H       -2.0674903252   -1.4717592750    0.1143153404
H       -1.7949986744    2.4869092508    3.1120165539
H       -4.2708309366    1.3502685715    4.2519730852
H        0.5715362228    2.7958081927    3.4657153505
H        2.0440753497    3.0558206104    2.5071211982
H        1.5208924336    1.4048612425    2.8952363311
H       -0.7673280844    4.1925380095    1.7064718367
H       -0.6782277535    3.7091442459   -0.0023456658
H        0.7394274790    4.4221613523    0.7931468651
H        1.0097036632    1.9895452889    0.5480844685
H       -4.3742355796   -1.9900170044    1.6243198820
H       -6.4572067105   -2.5560272691    4.7707627619
28   

C       -0.8217671565    0.2400243509    0.7080413629
C       -1.8624182388   -0.6893666927    0.8350343780
C       -1.7635684713    1.5568238697    2.5171224254
C       -3.9601724292    0.5444208695    3.4978403269
C       -2.7970124752    0.6217055189    2.6307531388
C       -0.7540283881    1.3752291282    1.5439697916
C       -2.8370776490   -0.4778770032    1.8021504443
C       -4.6512399243   -0.5942563146    3.1606607866
C       -5.9479945077   -1.1089150896    3.6923408626
C        1.2361728120    2.4194925127    2.6491116471
C       -0.1534840825    3.7538588253    1.0173696998
C        0.3808973031    2.3653939078    1.3806022880
N       -3.9577980260   -1.2387167690    2.1092663885
O       -7.0409112536   -0.8423953158    3.2349022983
O       -5.8117726244   -1.9274280929    4.7599700691
H       -0.0626023559    0.0766318230   -0.0481854904
H       -1.9100403958   -1.5565931316    0.1887134353
H       -1.7494596670    2.4160591567    3.1760610892
H       -4.2459227852    1.2614268561    4.2574825195
H        0.6479679184    2.7657371616    3.5042669493
H        2.0800080157    3.1018924920    2.5073041247
H        1.6318985453    1.4244431284    2.8762604325
H       -0.7882452893    4.1521629340    1.8145237172
H       -0.7414934060    3.6996237543    0.0956183115
H        0.6772387523    4.4478465102    0.8555688076
H        1.0243921373    2.0326753721    0.5591748977
H       -4.2438146271   -2.0939667895    1.6412659857
H       -6.7168068517   -2.1770966206    5.0048708310
28   

C       -0.7437461911    0.1570864619    0.7591941023
C       -1.7458215354   -0.8106932900    0.9108825248
C       -1.6911890633    1.4397479607    2.5891681738
C       -3.8513081735    0.3746548659    3.5871694686
C       -2.6872976496    0.4680921678    2.7248011152
C       -0.6991343743    1.2955284095    1.5924586535
C       -2.7060072652   -0.6341381011    1.8994657409
C       -4.5177212593   -0.7890634660    3.2618941724
C       -5.8931500848   -1.1982705473    3.6370293352
C        1.2926763458    2.4020328580    2.6249104405
C       -0.2159121955    3.7072186004    1.0778973720
C        0.3859355256    2.3341862639    1.3940014833
N       -3.8083124677   -1.4201459134    2.2126756360
O       -6.8444208643   -1.1888765178    2.8768579809
O       -6.0402446292   -1.4933331857    4.9484683647
H        0.0004154269    0.0237111089   -0.0175465842
H       -1.7801818026   -1.6761974486    0.2614125562
H       -1.6985949986    2.3031070769    3.2427917171
H       -4.1830984354    1.1177242347    4.3017847132
H        0.7278367176    2.7086806194    3.5104545493
H        2.1011974642    3.1209702560    2.4599445945
H        1.7375008033    1.4202547682    2.8159696572
H       -0.8267124860    4.0712761368    1.9093575123
H       -0.8436998772    3.6447738630    0.1832922086
H        0.5803380084    4.4341298290    0.8893326587
H        1.0042108395    2.0400058579    0.5391875969
H       -4.1144029060   -2.2444254828    1.7027424041
H       -6.9827655652   -1.6961103379    5.0584113920
28   

C       -0.7577819367    0.1639743039    0.7398843278
C       -1.7581618790   -0.8061322460    0.8878561481
C       -1.6845745064    1.4182519300    2.5998966933
C       -3.8344114143    0.3388104427    3.6042226102
C       -2.6790268122    0.4444350039    2.7317743617
C       -0.7039959755    1.2896704106    1.5897934993
C       -2.7071514537   -0.6449169120    1.8897130872
C       -4.5059452877   -0.8219427994    3.2684075845
C       -5.8724523689   -1.2385256555    3.6315096434
C        1.2966177035    2.3858127186    2.6170532168
C       -0.2290724743    3.7080725272    1.1016283266
C        0.3779454775    2.3321257618    1.3943237022
N       -3.8072073410   -1.4345445363    2.2015631566
O       -6.7562650720   -1.4747885331    2.8241463212
O       -6.1181744791   -1.2209362263    4.9616255451
H       -0.0225099567    0.0426869233   -0.0472285563
H       -1.8002148175   -1.6614922314    0.2254960955
H       -1.6849732770    2.2717281546    3.2664262557
H       -4.1605622311    1.0715503653    4.3321331200
H        0.7401835423    2.6806752686    3.5118672902
H        2.1025736197    3.1078622955    2.4531295323
H        1.7445078617    1.4023328640    2.7914427296
H       -0.8324650945    4.0603355424    1.9435220545
H       -0.8653645833    3.6560101449    0.2123777223
H        0.5641444754    4.4387197175    0.9147374987
H        0.9882556264    2.0497711623    0.5298543578
H       -4.1305526078   -2.2423090516    1.6751195525
H       -7.0535938896   -1.4639205722    5.0491914726
28   

C       -0.7796095948    0.1993465713    0.7075587745
C       -1.7852048315   -0.7665641772    0.8465449423
C       -1.6867071792    1.4299545109    2.5931118143
C       -3.8314042601    0.3422325033    3.6013901004
C       -2.6862125866    0.4601840219    2.7165360962
C       -0.7132932477    1.3110339420    1.5748344130
C       -2.7264888796   -0.6153628028    1.8570654066
C       -4.5104849702   -0.8114995654    3.2529426883
C       -5.8466392577   -1.2737979431    3.6447136256
C        1.2973994803    2.3808177837    2.6116833174
C       -0.2233605483    3.7312937907    1.1161610920
C        0.3755865006    2.3481920739    1.3904383258
N       -3.8257659584   -1.4061996634    2.1676391451
O       -6.6656075215   -1.7429806067    2.8685574269
O       -6.1572943704   -1.0356051543    4.9400699014
H       -0.0494743934    0.0852358264   -0.0853868893
H       -1.8361529660   -1.6120645515    0.1722292828
H       -1.6764078097    2.2719693642    3.2739952377
H       -4.1416403742    1.0567597529    4.3540937182
H        0.7452424845    2.6688038682    3.5113620397
H        2.1079556908    3.0992211182    2.4545375076
H        1.7389560405    1.3922873793    2.7732365927
H       -0.8231940592    4.0763748655    1.9635657236
H       -0.8615318414    3.6941655736    0.2275095623
H        0.5740025537    4.4593411966    0.9369885138
H        0.9823080839    2.0724893979    0.5213072399
H       -4.1574121990   -2.2100049722    1.6393486467
H       -7.0702784596   -1.3484240068    5.0423323439
28   

C       -0.8190556524    0.2271865362    0.6716731359
C       -1.8333190235   -0.7305265370    0.8033571708
C       -1.7038627378    1.4415109322    2.5784443225
C       -3.8450890314    0.3524985424    3.5947048168
C       -2.7118104308    0.4796571896    2.6952087821
C       -0.7369241724    1.3262832962    1.5535065466
C       -2.7671579732   -0.5838256551    1.8213020781
C       -4.5345213537   -0.7925578969    3.2365307664
C       -5.8312240936   -1.3082785185    3.6743937770
C        1.2859906715    2.3634121274    2.6014733293
C       -0.2198957548    3.7442364333    1.1185190252
C        0.3640022782    2.3524262211    1.3797606768
N       -3.8663143107   -1.3735256221    2.1342127326
O       -6.5694137211   -1.9889497970    2.9756171731
O       -6.2045986629   -0.9016863575    4.9102883966
H       -0.0934685088    0.1155872984   -0.1257903095
H       -1.8950193883   -1.5678525329    0.1197813049
H       -1.6799749583    2.2729275100    3.2719026354
H       -4.1330792240    1.0473878269    4.3742720039
H        0.7373222095    2.6497724133    3.5037893750
H        2.1048288716    3.0737791538    2.4508352398
H        1.7161826684    1.3684845633    2.7542522347
H       -0.8169000374    4.0870428341    1.9688528494
H       -0.8576488122    3.7223339244    0.2290686329
H        0.5852966333    4.4654758153    0.9470599202
H        0.9680994133    2.0781146268    0.5083636700
H       -4.1997016821   -2.1831476188    1.6151913359
H       -7.0834487125   -1.2895845006    5.0485210118
28   

C       -0.8908305288    0.2300527000    0.6209104599
C       -1.9188175214   -0.7134723563    0.7475417070
C       -1.7422627126    1.4320945302    2.5507163458
C       -3.8808115058    0.3506523709    3.5824137867
C       -2.7634705253    0.4838001657    2.6633938527
C       -0.7848512045    1.3155279526    1.5169340019
C       -2.8420523692   -0.5664647994    1.7749646367
C       -4.5873763992   -0.7815025797    3.2157750104
C       -5.8371037687   -1.3473621823    3.7156515751
C        1.2532222156    2.3147300897    2.5759040813
C       -0.2276553347    3.7250500740    1.0953512850
C        0.3339443481    2.3235248158    1.3518171905
N       -3.9432176652   -1.3506989122    2.0936987455
O       -6.4818163694   -2.2064048139    3.1287967693
O       -6.2680704602   -0.8125888024    4.8822976913
H       -0.1720108671    0.1169318725   -0.1824449341
H       -1.9971343440   -1.5421120173    0.0551260648
H       -1.6982971531    2.2519923757    3.2567999011
H       -4.1368895184    1.0229550959    4.3924044680
H        0.7078708986    2.6074890944    3.4781511000
H        2.0842871539    3.0116726682    2.4295218298
H        1.6663535151    1.3122343692    2.7263396536
H       -0.8229350242    4.0720304145    1.9452295284
H       -0.8622530075    3.7169407760    0.2034178926
H        0.5889649666    4.4348785949    0.9305404098
H        0.9361983766    2.0432196928    0.4810513676
H       -4.2759159917   -2.1706612681    1.5902105104
H       -7.1026327076   -1.2688552077    5.0755171213
28   

C       -0.9242976152    0.2957626741    0.5687675585
C       -1.9642998102   -0.6367173724    0.6774082445
C       -1.7570470347    1.4679612185    2.5249651786
C       -3.8931746733    0.3776671001    3.5531632264
C       -2.7894556939    0.5299499317    2.6205542529
C       -0.8026221554    1.3604744392    1.4874100685
C       -2.8834670640   -0.4997284781    1.7098125144
C       -4.6110752842   -0.7411827637    3.1681267914
C       -5.8023309394   -1.3745190379    3.7238753191
C        1.2434416269    2.3144848393    2.5756827018
C       -0.2071454162    3.7656573798    1.1045745129
C        0.3328212290    2.3532170113    1.3453708379
N       -3.9849724566   -1.2852657357    2.0236568078
O       -6.3227331952   -2.3789757096    3.2558742072
O       -6.3065834685   -0.7606174086    4.8201216921
H       -0.2068643420    0.1888037981   -0.2366675573
H       -2.0524073567   -1.4517037793   -0.0298820733
H       -1.6990276783    2.2699957775    3.2502940623
H       -4.1200568689    1.0162632808    4.3983811095
H        0.6968252996    2.6040325158    3.4781786378
H        2.0859930777    3.0005030757    2.4440078225
H        1.6404526249    1.3040194888    2.7159392947
H       -0.8047043182    4.1081941516    1.9546790883
H       -0.8345245441    3.7787624295    0.2076179756
H        0.6204686800    4.4663501846    0.9564571660
H        0.9375652167    2.0760030863    0.4753417169
H       -4.3057208023   -2.1159651817    1.5298947134
H       -7.0822974693   -1.2878554438    5.0697347452
