29   
Generated by ForceBalance from scan.xyz: Frame 1 of 24
C       -1.9535619530    0.1912627397    1.5705250928
C       -2.7306698924   -0.5844889349    2.4014672667
C       -0.6775433345   -0.2879975019    1.2010893408
C       -2.1747197959   -1.8109133178    2.8195915784
C       -0.2333761853    1.5002414282   -0.6665586783
C        0.2728318447    0.1674250886   -1.1723664706
C        0.2789861891    0.4652645471    0.3156344374
C       -0.0438625925   -2.2369209433   -1.8988779925
C       -2.3484939449   -3.8385018572    4.0511807394
C       -0.6717525929   -0.8410357278   -1.7950386217
N       -0.2163702304   -1.4580610999    1.6518651752
N       -0.9617008370   -2.2215139444    2.4616716123
N        1.5933586411    0.7333949240    0.8736755874
O       -2.9273561566   -2.5895664170    3.6288446445
H       -2.3054806974    1.1534829322    1.2122053546
H       -3.7205612846   -0.2907272508    2.7369947958
H        0.3900494504    2.3768982559   -0.8085439055
H       -1.3030669611    1.6806079425   -0.7308476829
H        1.2682183220    0.1919984598   -1.6107775392
H        0.8630844961   -2.2112523768   -2.5136492505
H       -0.7374144943   -2.9515714179   -2.3553174072
H        0.2321146961   -2.6110532046   -0.9077249364
H       -3.1079057980   -4.3026513702    4.6811404410
H       -1.4290862409   -3.6676019966    4.6169891864
H       -2.1218660681   -4.4714947008    3.1894749135
H       -1.6019052571   -0.8938038242   -1.2169407903
H       -0.9545363202   -0.4879146404   -2.7955182953
H        1.9944461151   -0.1535249053    1.1800602120
H        1.4953382805    1.3097965156    1.7100229975
29   
Generated by ForceBalance from scan.xyz: Frame 2 of 24
C       -1.9941977088   -0.0455695693    1.2360990403
C       -2.7805823327   -0.8493839395    2.0286964561
C       -0.6103523179   -0.3265985086    1.1500876585
C       -2.1308583941   -1.9048808494    2.7012733375
C       -0.0993052923    1.5821639334   -0.5856872668
C        0.3126973252    0.2734094996   -1.2166531191
C        0.3646326345    0.4461585904    0.3019333041
C       -0.2933282299   -2.1206537977   -1.7996809327
C       -2.2163557863   -3.7794249444    4.1624117816
C       -0.6917641673   -0.6411046931   -1.8892029700
N       -0.0702460454   -1.3397343446    1.8332305005
N       -0.8252681847   -2.1300765403    2.6086807718
N        1.7060574774    0.6022758915    0.8332351614
O       -2.8923111082   -2.7085981579    3.4775402400
H       -2.4281665589    0.7927390607    0.7020990047
H       -3.8482028464   -0.6968935276    2.1534412448
H        0.5789660309    2.4257475532   -0.6621923965
H       -1.1528057444    1.8441329702   -0.6120630148
H        1.3066463937    0.2644912584   -1.6581255243
H        0.6826646989   -2.2920226150   -2.2677987123
H       -1.0244052264   -2.7590884859   -2.3075146738
H       -0.2201844695   -2.4453629645   -0.7574631429
H       -2.9981440687   -4.2955101160    4.7205354144
H       -1.4540354653   -3.3858181440    4.8396431662
H       -1.7405739891   -4.4566483967    3.4484764897
H       -1.6850612845   -0.5048145641   -1.4460997418
H       -0.7890496545   -0.3424368556   -2.9407418529
H        2.0408656644   -0.3190642611    1.1159806927
H        1.6594723697    1.1533669154    1.6911727973
29   
Generated by ForceBalance from scan.xyz: Frame 3 of 24
C       -2.0058391901   -0.1590745803    1.0610791557
C       -2.7996911311   -0.9705505867    1.8358359670
C       -0.6017120428   -0.3413378238    1.1066126405
C       -2.1398989069   -1.9328549977    2.6292815477
C       -0.0755946014    1.6269382450   -0.5387231626
C        0.3243799446    0.3581683088   -1.2541737369
C        0.3812032725    0.4428270560    0.2802496627
C       -0.5092879248   -2.0224741866   -1.7078132866
C       -2.2247225403   -3.7193683451    4.1960800967
C       -0.6753939075   -0.5215334563   -1.9875456841
N       -0.0551138586   -1.2634845057    1.9032523601
N       -0.8197236639   -2.0609082116    2.6642902523
N        1.7279949015    0.5615139693    0.8057348487
O       -2.9103082169   -2.7450300205    3.3879068162
H       -2.4528559256    0.6075819281    0.4384535140
H       -3.8821497785   -0.8913542162    1.8604680980
H        0.6065582670    2.4706218581   -0.5693054709
H       -1.1269626818    1.8981053993   -0.5410836465
H        1.3247218841    0.3663171213   -1.6796864813
H        0.5071970671   -2.3562099277   -1.9454934008
H       -1.2044445876   -2.6111098900   -2.3164371431
H       -0.6940420467   -2.2600240015   -0.6580651599
H       -3.0150260215   -4.2607447799    4.7170226633
H       -1.5567299035   -3.2298972575    4.9094523336
H       -1.6391645568   -4.3982609062    3.5707715699
H       -1.6993251076   -0.2240621991   -1.7318040181
H       -0.5754276625   -0.3307906541   -3.0629003842
H        2.0519210134   -0.3730956618    1.0552620770
H        1.6907330300    1.0743943233    1.6877500805
29   
Generated by ForceBalance from scan.xyz: Frame 4 of 24
C       -1.9862301977   -0.1814010501    1.0750727282
C       -2.7713885861   -0.9937613536    1.8569785726
C       -0.5811237449   -0.3615117232    1.1075250528
C       -2.1018797884   -1.9572917142    2.6416479538
C       -0.0886987702    1.6167101002   -0.5191942029
C        0.3581376801    0.3756684039   -1.2578550202
C        0.3919192444    0.4368051488    0.2835467846
C       -0.6798877209   -1.9865667807   -1.5914084280
C       -2.1687808319   -3.7491222162    4.2029390455
C       -0.5884244877   -0.5221723899   -2.0519724441
N       -0.0250229705   -1.2828369266    1.8972947055
N       -0.7815625725   -2.0845945180    2.6624286976
N        1.7317465865    0.5812175468    0.8222461819
O       -2.8637029899   -2.7723818937    3.4056320708
H       -2.4407582303    0.5770681482    0.4477407767
H       -3.8538504086   -0.9179157213    1.8905237323
H        0.5645894190    2.4837333083   -0.5316510506
H       -1.1479821002    1.8539116426   -0.5324932200
H        1.3695741435    0.4281210949   -1.6512837155
H        0.3160189851   -2.4279853898   -1.4748178389
H       -1.2246762414   -2.5825132549   -2.3320803455
H       -1.1978456816   -2.0912153637   -0.6381834879
H       -2.9530445831   -4.2930663502    4.7302875167
H       -1.4936429561   -3.2615871703    4.9108941346
H       -1.5893110138   -4.4251639580    3.5689406704
H       -1.5988296910   -0.0932095490   -2.0494137251
H       -0.2660376830   -0.4930546477   -3.0988829121
H        2.0740070357   -0.3483296860    1.0663025984
H        1.6743359092    1.0842920922    1.7089625003
29   
Generated by ForceBalance from scan.xyz: Frame 5 of 24
C       -1.9616888840    0.2504608394    0.9718529178
C       -2.9867517504   -0.3325866385    1.6809709527
C       -0.6489232938   -0.2391105907    1.1586008675
C       -2.6338407939   -1.3856872127    2.5499527136
C        0.4155233908    1.2520201188   -0.7117979724
C        0.9122359587   -0.1530348133   -0.9831363579
C        0.5616880897    0.2951315593    0.4423477646
C       -0.6137488352   -2.2932707901   -1.1276089868
C       -3.2579363041   -3.0527793872    4.1272527643
C        0.1307452113   -1.1535231020   -1.8430706051
N       -0.3929801860   -1.2176057541    2.0307470646
N       -1.3816766437   -1.7956888214    2.7244416220
N        1.7358876717    0.5195868311    1.2711036596
O       -3.6318066228   -1.9831989766    3.2389815491
H       -2.1576347291    1.0704101443    0.2893424422
H       -4.0216626960   -0.0147642764    1.5994849814
H        1.1235420711    2.0737382402   -0.7572241454
H       -0.5806867981    1.4900812615   -1.0735334105
H        1.9910437293   -0.2211073700   -1.0893849075
H        0.0239915411   -2.7900688147   -0.3902618832
H       -0.9340851849   -3.0422647038   -1.8604110104
H       -1.5079434407   -1.9442492633   -0.6076545577
H       -4.1944826436   -3.3907477082    4.5718734075
H       -2.5715511734   -2.6938913395    4.8984155800
H       -2.7776087390   -3.8646586265    3.5751121019
H       -0.5851232699   -0.6112909032   -2.4735699613
H        0.8497476270   -1.5979640209   -2.5397089793
H        1.9277682626   -0.3432430356    1.7811126621
H        1.5104421192    1.2181931564    1.9806150794
29   
Generated by ForceBalance from scan.xyz: Frame 6 of 24
C       -1.9656409790    0.2898654120    1.0724208053
C       -2.9806855881   -0.2904054318    1.7988177127
C       -0.6679417618   -0.2591010986    1.1714344681
C       -2.6299828184   -1.3995208626    2.5957134482
C        0.3608293865    1.1886839609   -0.7553395238
C        0.9387818371   -0.1993138767   -0.9450306132
C        0.5301832777    0.2895872872    0.4449659948
C       -0.7686578876   -2.2000440693   -1.1914269287
C       -3.2471816124   -3.1250770042    4.1117821265
C        0.2602657113   -1.2541576023   -1.8278544591
N       -0.4097534618   -1.2900274101    1.9797576380
N       -1.3879782263   -1.8647029851    2.6906239678
N        1.6724201773    0.6093642174    1.2898099078
O       -3.6182798268   -1.9956363665    3.2996800561
H       -2.1539959123    1.1522268777    0.4412465578
H       -4.0051310319    0.0686930643    1.7821436630
H        1.0215924760    2.0469235663   -0.8276943290
H       -0.6420389604    1.3474560742   -1.1433388313
H        2.0220236030   -0.1982111724   -1.0258396188
H       -0.3527120495   -2.7204827801   -0.3248433185
H       -1.0774523789   -2.9514113683   -1.9266727445
H       -1.6710945096   -1.6768874313   -0.8634590370
H       -4.1754297686   -3.4521696001    4.5812496461
H       -2.5133942295   -2.8344010359    4.8678496021
H       -2.8243138534   -3.9227451634    3.4956258800
H       -0.2027184587   -0.7510504384   -2.6859617597
H        1.0600671153   -1.8733522932   -2.2491113187
H        1.9095794807   -0.2265039594    1.8253806148
H        1.3927940175    1.3136325779    1.9738986114
29   
Generated by ForceBalance from scan.xyz: Frame 7 of 24
C       -1.9803270536    0.2661206315    1.1123429977
C       -2.9856808126   -0.3193775974    1.8478221647
C       -0.6846929232   -0.2912161945    1.1808282807
C       -2.6263475629   -1.4414596427    2.6224879999
C        0.3205766331    1.1319259599   -0.7812950101
C        0.9508000289   -0.2402778334   -0.9112538432
C        0.5038759734    0.2739373219    0.4512917607
C       -0.9140856334   -2.0651946511   -1.3040316508
C       -3.2253204692   -3.1831492057    4.1274771247
C        0.3425981170   -1.3328756815   -1.7926432438
N       -0.4173489880   -1.3375961890    1.9657035912
N       -1.3862524213   -1.9172116895    2.6860527623
N        1.6193046074    0.6620132913    1.3044203472
O       -3.6046840049   -2.0407286340    3.3376819075
H       -2.1725806985    1.1382715329    0.4955311961
H       -4.0087344468    0.0440319821    1.8537228322
H        0.9514907213    2.0104189736   -0.8723022408
H       -0.6839440848    1.2416295696   -1.1823538133
H        2.0342352142   -0.1957334122   -0.9846035540
H       -0.7332741606   -2.5853108444   -0.3607551747
H       -1.2169558665   -2.8087715650   -2.0493575477
H       -1.7625519217   -1.3889872134   -1.1576903074
H       -4.1463838675   -3.5104956108    4.6107268159
H       -2.4750430419   -2.9071682710    4.8728075090
H       -2.8197591317   -3.9752872007    3.4928508123
H        0.1464878196   -0.8974487001   -2.7805693467
H        1.1202413560   -2.0894175854   -1.9507277921
H        1.8843323508   -0.1499642373    1.8632863042
H        1.3015868319    1.3715668441    1.9659564320
29   
Generated by ForceBalance from scan.xyz: Frame 8 of 24
C       -1.9888448295    0.2401248643    1.1327998957
C       -2.9858291568   -0.3578273072    1.8693758614
C       -0.6898407094   -0.3102885644    1.1883742653
C       -2.6142933077   -1.4840815003    2.6324834602
C        0.2946620311    1.0826207713   -0.8080083730
C        0.9573290465   -0.2778411770   -0.8827379923
C        0.4887961117    0.2688190108    0.4553107172
C       -1.0257197126   -1.9298656027   -1.4043108246
C       -3.1922845417   -3.2399007825    4.1293253707
C        0.3858170874   -1.4182241685   -1.7193131019
N       -0.4102206351   -1.3628061178    1.9605893283
N       -1.3713714931   -1.9540760538    2.6826704216
N        1.5843996533    0.7130385062    1.3070318516
O       -3.5841927686   -2.0947320359    3.3497079998
H       -2.1888124832    1.1154170398    0.5226801458
H       -4.0113640226   -0.0017406166    1.8844629623
H        0.9081548927    1.9705073806   -0.9228522336
H       -0.7098668732    1.1606279012   -1.2158836269
H        2.0403148335   -0.2146903633   -0.9571461999
H       -1.0733841985   -2.4066506877   -0.4233946288
H       -1.3218625397   -2.6733206367   -2.1522482788
H       -1.7746967085   -1.1308034061   -1.4290639890
H       -4.1077850462   -3.5757422300    4.6172982152
H       -2.4381101440   -2.9641826318    4.8708280642
H       -2.7867087683   -4.0256194530    3.4867878515
H        0.4288012144   -1.1007667110   -2.7691323659
H        1.0740745204   -2.2681955633   -1.6343054577
H        1.8721930251   -0.0763992150    1.8865892696
H        1.2402472482    1.4284075925    1.9487069075
29   
Generated by ForceBalance from scan.xyz: Frame 9 of 24
C       -1.9771695180    0.2568660772    1.1570999522
C       -2.9703596250   -0.3487527419    1.8923878641
C       -0.6811458551   -0.3025630512    1.1898656501
C       -2.5976488654   -1.4915650791    2.6303795953
C        0.2830042194    1.0527860790   -0.8365492435
C        0.9670104085   -0.2992962087   -0.8617417041
C        0.4906412196    0.2850718357    0.4538705884
C       -1.0816803973   -1.8228756444   -1.4949401330
C       -3.1718947487   -3.2726318140    4.0985848437
C        0.4140289844   -1.5020151766   -1.6148885407
N       -0.3995303760   -1.3725692482    1.9369152352
N       -1.3577530437   -1.9712321150    2.6576999296
N        1.5704235966    0.7752437970    1.2996602149
O       -3.5641399078   -2.1096130012    3.3459875045
H       -2.1772440337    1.1429393133    0.5625762657
H       -3.9938803902    0.0120525142    1.9238682863
H        0.8886558316    1.9414884622   -0.9823716971
H       -0.7235075164    1.1109432398   -1.2411155642
H        2.0491197990   -0.2261013457   -0.9438254655
H       -1.3452002350   -2.1866160547   -0.5001859746
H       -1.3480616167   -2.6060525931   -2.2127096879
H       -1.7114352757   -0.9541874390   -1.7166594698
H       -4.0842589163   -3.6113369452    4.5904392704
H       -2.4072416250   -3.0169938085    4.8365239694
H       -2.7795309639   -4.0485115336    3.4361852744
H        0.6583542599   -1.3486649367   -2.6741219006
H        0.9809077395   -2.3864895309   -1.2985267548
H        1.8790508257    0.0061085759    1.8955050130
H        1.2080113411    1.4959585077    1.9249649369
29   
Generated by ForceBalance from scan.xyz: Frame 10 of 24
C       -1.9883653528    0.2733595506    1.2368276376
C       -2.9617907994   -0.3430939082    1.9890292106
C       -0.7027485007   -0.3102257352    1.1934613073
C       -2.5806318296   -1.5219581961    2.6642989784
C        0.2068785995    1.0195913614   -0.8701549199
C        0.9252050339   -0.3160232608   -0.8587940030
C        0.4467354356    0.2963832057    0.4398761957
C       -1.1316840043   -1.7598441019   -1.6195965597
C       -3.1291714848   -3.3495447805    4.0845102066
C        0.3884205906   -1.5781010923   -1.5210876153
N       -0.4123284477   -1.4187247594    1.8781479598
N       -1.3524388524   -2.0284895215    2.6148017251
N        1.5152502902    0.8402716015    1.2671923907
O       -3.5279020997   -2.1483987330    3.3980307607
H       -2.1943070550    1.1842784300    0.6827548918
H       -3.9762953728    0.0334018692    2.0775689896
H        0.7902558076    1.9172547962   -1.0484315132
H       -0.8060754535    1.0434411677   -1.2607825014
H        2.0047131967   -0.2246364620   -0.9552752894
H       -1.6003077141   -1.8919345499   -0.6425065465
H       -1.3580777308   -2.6524129645   -2.2123671040
H       -1.6134417973   -0.9104505631   -2.1160830261
H       -4.0262777809   -3.6890655110    4.6031383065
H       -2.3269144244   -3.1405947599    4.7967812844
H       -2.7843167242   -4.1052942207    3.3741865266
H        0.8052760311   -1.6048720456   -2.5359955485
H        0.8122850651   -2.4417099234   -0.9935171331
H        1.8607677339    0.0944074523    1.8722926851
H        1.1354084208    1.5600644488    1.8830994002
29   
Generated by ForceBalance from scan.xyz: Frame 11 of 24
C       -1.9980505513    0.2858186050    1.2840112550
C       -2.9579539328   -0.3371380634    2.0478957915
C       -0.7192490068   -0.3085766450    1.1931288995
C       -2.5708203112   -1.5359983679    2.6840912778
C        0.1558213642    0.9927959019   -0.8967860911
C        0.8982282202   -0.3303588827   -0.8528404972
C        0.4160108793    0.3124967830    0.4297553522
C       -1.1437384817   -1.6913568451   -1.7507688804
C       -3.1005626733   -3.3898982786    4.0770165682
C        0.3528708661   -1.6356385499   -1.4208602638
N       -0.4243471051   -1.4390562795    1.8384983200
N       -1.3518082587   -2.0564968069    2.5858273317
N        1.4727395544    0.8976121152    1.2427117049
O       -3.5041085767   -2.1683492827    3.4304263363
H       -2.2081157648    1.2112282610    0.7556548551
H       -3.9656098816    0.0474166564    2.1728020479
H        0.7232936019    1.8941548232   -1.1056119350
H       -0.8594221626    0.9875550070   -1.2818267595
H        1.9754919792   -0.2309433999   -0.9605500781
H       -1.7728707462   -1.5434074968   -0.8690683608
H       -1.3964780101   -2.6712459824   -2.1692706910
H       -1.4192205295   -0.9354318927   -2.4940636848
H       -3.9863276903   -3.7308093423    4.6138962104
H       -2.2753389183   -3.2070282067    4.7699767390
H       -2.7859628722   -4.1327853098    3.3396401217
H        0.9118056161   -1.8493521001   -2.3402128805
H        0.5964034979   -2.4412287904   -0.7175412838
H        1.8446237978    0.1719151237    1.8564740340
H        1.0796836167    1.6183725839    1.8490084261
29   
Generated by ForceBalance from scan.xyz: Frame 12 of 24
C       -2.0244360944    0.2247315234    1.2499822158
C       -2.9763341392   -0.4083012625    2.0160758228
C       -0.7221508177   -0.3218510395    1.2067920009
C       -2.5593821556   -1.5687462431    2.7018680213
C        0.1357772454    0.9893533462   -0.8765539557
C        0.8669639456   -0.3414446646   -0.8501852828
C        0.4088213112    0.3081872819    0.4425476876
C       -1.1523727665   -1.5801343756   -1.9303663682
C       -3.0488058289   -3.3917757510    4.1492609341
C        0.2703819510   -1.6507592799   -1.3626957262
N       -0.4012056922   -1.4191974997    1.8963227978
N       -1.3198435072   -2.0454209735    2.6464300946
N        1.4769800455    0.8819890428    1.2463836164
O       -3.4840727289   -2.2100243210    3.4512448898
H       -2.2581675480    1.1252616159    0.6897861460
H       -3.9995740384   -0.0571045643    2.1079443579
H        0.7120034465    1.8832345943   -1.0932302198
H       -0.8823289014    0.9975065456   -1.2532146142
H        1.9426308284   -0.2577293818   -0.9792623377
H       -1.8835468722   -1.2649317677   -1.1788131746
H       -1.4644737092   -2.5658654153   -2.2914334822
H       -1.2109199572   -0.8813244017   -2.7716174817
H       -3.9321141364   -3.7466721426    4.6810889045
H       -2.2452663080   -3.1534363352    4.8507738752
H       -2.6918975222   -4.1479642282    3.4454258002
H        0.9305785564   -2.0260349181   -2.1534130238
H        0.3082366224   -2.3921569742   -0.5560421574
H        1.8476067897    0.1518903622    1.8555343003
H        1.0960542099    1.6053534115    1.8572163053
29   
Generated by ForceBalance from scan.xyz: Frame 13 of 24
C       -2.0756307042    0.0679383045    1.1624224568
C       -3.0242024851   -0.5774542675    1.9232515411
C       -0.7312490796   -0.3540571116    1.2623411500
C       -2.5635981776   -1.6227017915    2.7501147870
C        0.1371111630    0.9980250279   -0.7930843910
C        0.8100264213   -0.3622071835   -0.8228984401
C        0.4049505614    0.2736148996    0.5013983349
C       -1.1418307827   -1.4187616377   -2.1752405326
C       -3.0017328783   -3.3354164637    4.3417493377
C        0.1317987498   -1.6298344836   -1.3466835022
N       -0.3728965060   -1.3472091284    2.0808583591
N       -1.2861341491   -1.9826336938    2.8275259419
N        1.5104621539    0.7812794946    1.2956253567
O       -3.4834952804   -2.2735857443    3.4971084064
H       -2.3481597908    0.8908477303    0.5092709858
H       -4.0772378594   -0.3134186675    1.9118164019
H        0.7516812438    1.8694772623   -0.9946255102
H       -0.8819644043    1.0657971603   -1.1593944214
H        1.8847843632   -0.3199579141   -0.9743929198
H       -1.9528023194   -0.9876469621   -1.5781125014
H       -1.5043139638   -2.3740472567   -2.5699013742
H       -0.9565781337   -0.7501363539   -3.0225910830
H       -3.8890624917   -3.7192583450    4.8460817210
H       -2.2788929716   -2.9550432053    5.0680160147
H       -2.5267300350   -4.1191125932    3.7461055051
H        0.8601583642   -2.1564393130   -1.9731996162
H       -0.0807128489   -2.3033437642   -0.5086125256
H        1.8461432925    0.0245382920    1.8923099005
H        1.1711494693    1.5125610445    1.9213851444
29   
Generated by ForceBalance from scan.xyz: Frame 14 of 24
C       -2.0820788582   -0.5812842495    0.8893647171
C       -3.0211283107   -1.2283051045    1.6559550731
C       -0.7410332501   -0.5443007569    1.3459329017
C       -2.5642626810   -1.8154191965    2.8550980639
C        0.1112194638    1.0219374676   -0.5809846242
C        0.6816258662   -0.3538736724   -0.8390646599
C        0.3870333320    0.1050404227    0.5936895978
C       -1.0766225130   -0.9727679495   -2.6401009049
C       -2.9993181061   -3.0520063814    4.8386640882
C       -0.0771687653   -1.4561427169   -1.5805897218
N       -0.3925384820   -1.1238436861    2.4972579824
N       -1.3005872430   -1.7596463008    3.2540952940
N        1.5737067218    0.4468617290    1.3536095137
O       -3.4778633449   -2.4574806098    3.6180321667
H       -2.3717373832   -0.1041187921   -0.0396698226
H       -4.0683728482   -1.2957213811    1.3779282978
H        0.7752079982    1.8747739431   -0.6772833921
H       -0.9181937932    1.2184652592   -0.8619450827
H        1.7513798311   -0.3427893828   -1.0262698397
H       -1.9045445680   -0.4073986559   -2.2005686319
H       -1.5122778131   -1.8235559437   -3.1751384978
H       -0.5912484620   -0.3220601597   -3.3752897390
H       -3.8783382542   -3.5096492821    5.2935809707
H       -2.5741617094   -2.2917820141    5.4989907919
H       -2.2362074328   -3.8059910480    4.6290819869
H        0.6655397586   -2.0969929235   -2.0666784422
H       -0.6002313368   -2.1053958732   -0.8683273489
H        1.8411320074   -0.3674920795    1.9068532402
H        1.3256621099    1.1610133855    2.0397175938
29   
Generated by ForceBalance from scan.xyz: Frame 15 of 24
C       -2.1116904178   -0.5934854836    0.9464407323
C       -3.0393721112   -1.2358088819    1.7307872627
C       -0.7616652951   -0.5630064125    1.3789387348
C       -2.5633313560   -1.8256529346    2.9211965522
C        0.0411398922    1.0219238731   -0.5432396618
C        0.6120475629   -0.3455393780   -0.8387815343
C        0.3539208908    0.0883492911    0.6090970677
C       -0.9060768940   -0.9289622700   -2.8253928982
C       -2.9680826928   -3.0610502915    4.9120399668
C       -0.1655766205   -1.4299871065   -1.5778727842
N       -0.3949796073   -1.1450653084    2.5229098745
N       -1.2920212909   -1.7771140684    3.2960892620
N        1.5555048746    0.4236671550    1.3470993295
O       -3.4660746836   -2.4629198720    3.7009589757
H       -2.4164264602   -0.1160677464    0.0215266558
H       -4.0918874261   -1.2983533117    1.4722760271
H        0.6989757861    1.8787816333   -0.6459764447
H       -0.9971282476    1.2190401730   -0.7897586776
H        1.6748095755   -0.3229438906   -1.0634363800
H       -1.6839413290   -0.2028609819   -2.5655350236
H       -1.3889689091   -1.7580784764   -3.3540664286
H       -0.2200601023   -0.4362651766   -3.5229501301
H       -3.8410048803   -3.5140248986    5.3830883815
H       -2.5262731542   -2.3037450973    5.5647360810
H       -2.2133485051   -3.8192024757    4.6876914882
H        0.5413627874   -2.2154346743   -1.8660611284
H       -0.8848409946   -1.9164899397   -0.9102852323
H        1.8376619451   -0.3968469776    1.8836188509
H        1.3205210337    1.1280419171    2.0477086110
29   
Generated by ForceBalance from scan.xyz: Frame 16 of 24
C       -2.1909636407   -0.4428754599    1.0541483023
C       -3.0909712714   -1.0972359733    1.8621890715
C       -0.8119702366   -0.5331110606    1.3636156845
C       -2.5567750911   -1.8195124758    2.9497032167
C       -0.0433394481    1.0108210834   -0.6198856955
C        0.5346091183   -0.3620736192   -0.8728929188
C        0.2833155396    0.1139146786    0.5584607132
C       -0.6833733833   -1.0457433893   -3.0003624951
C       -2.8716749409   -3.2062925237    4.8556910726
C       -0.2609368506   -1.4462050533   -1.5800405948
N       -0.3897204610   -1.2320346487    2.4202671845
N       -1.2573685689   -1.8765739439    3.2141295504
N        1.4905451116    0.4778380308    1.2758145838
O       -3.4297521437   -2.4728615256    3.7496305277
H       -2.5380459136    0.1376225861    0.2063183387
H       -4.1636029537   -1.0714574967    1.6967800626
H        0.6036173711    1.8718633796   -0.7517102586
H       -1.0835603304    1.1836658230   -0.8783236136
H        1.5948754423   -0.3516203891   -1.1133884556
H       -1.3345372496   -0.1653397079   -2.9832209756
H       -1.2268556887   -1.8583845270   -3.4947300944
H        0.1865704162   -0.7980350112   -3.6188647208
H       -3.7294925859   -3.6504597363    5.3615726109
H       -2.3293454265   -2.5379959964    5.5294388162
H       -2.1885146571   -3.9821962414    4.5007230145
H        0.3427819584   -2.3604628809   -1.6126635525
H       -1.1574551623   -1.7029867479   -1.0051263716
H        1.7885503983   -0.3311913416    1.8212874784
H        1.2585578413    1.1960159251    1.9631877567
29   
Generated by ForceBalance from scan.xyz: Frame 17 of 24
C       -2.2607322255   -0.0415191586    1.3074687454
C       -3.1491098529   -0.7068113100    2.1225487118
C       -0.9019732217   -0.4258145076    1.3374207298
C       -2.6162466323   -1.7317324416    2.9306929087
C       -0.1689851553    1.0282448077   -0.7231765532
C        0.4702428433   -0.3365183866   -0.8707906732
C        0.1778006568    0.2210871290    0.5109645374
C       -0.4368228550   -1.3576406623   -3.0033644421
C       -2.9193998428   -3.4432879304    4.5545862215
C       -0.3067679128   -1.4862119828   -1.4800857007
N       -0.4730062955   -1.4004772177    2.1440533696
N       -1.3266150625   -2.0551234920    2.9417553856
N        1.3541990698    0.6718443945    1.2349484613
O       -3.4757789272   -2.4013886204    3.7312149671
H       -2.5925341051    0.7670367380    0.6641924898
H       -4.2081948791   -0.4717711594    2.1654537850
H        0.4384054224    1.9080585572   -0.9081564856
H       -1.2110522832    1.1209793304   -1.0167550203
H        1.5301544334   -0.3179634513   -1.1144990817
H       -0.9605352082   -0.4341819602   -3.2737097211
H       -0.9936889834   -2.2005300813   -3.4269967084
H        0.5475132582   -1.3311446959   -3.4844450632
H       -3.7669154541   -3.8477024990    5.1088521858
H       -2.1689966885   -3.0378521137    5.2380850516
H       -2.4557804118   -4.2180356134    3.9385878285
H        0.1846838366   -2.4315603562   -1.2200549228
H       -1.3088733664   -1.5356435388   -1.0380281315
H        1.7084584804   -0.1147753586    1.7801461098
H        1.0796890725    1.3862209353    1.9101233742
29   
Generated by ForceBalance from scan.xyz: Frame 18 of 24
C       -2.2591581462    0.0346053288    1.3763236638
C       -3.1268113236   -0.6437640086    2.2025656771
C       -0.9103360175   -0.3820435104    1.3289098756
C       -2.5826133117   -1.7139441938    2.9419925416
C       -0.2401421366    1.1025136143   -0.7290263880
C        0.3834117292   -0.2651063473   -0.9186563151
C        0.1442433260    0.2760378106    0.4795271585
C       -0.3389777102   -1.4909194356   -3.0100670615
C       -2.8565511575   -3.4880534153    4.5023673262
C       -0.4267463301   -1.4156297936   -1.4805354747
N       -0.4687867598   -1.3985657775    2.0745325137
N       -1.3022289035   -2.0667711487    2.8828766707
N        1.3467652918    0.7089367917    1.1705330363
O       -3.4226462597   -2.3984316481    3.7506920409
H       -2.5981005392    0.8769909713    0.7818503655
H       -4.1769493215   -0.3872042667    2.3035538634
H        0.3685382466    1.9799206880   -0.9215424252
H       -1.2904644045    1.2070541340   -0.9871692528
H        1.4341527032   -0.2599386429   -1.1998469497
H       -0.7071592333   -0.5671011206   -3.4703427554
H       -0.9317275214   -2.3246552302   -3.4017224053
H        0.6967237623   -1.6340414990   -3.3380953587
H       -3.6887087663   -3.8974759351    5.0759109069
H       -2.0672609603   -3.1304677039    5.1685477488
H       -2.4395118756   -4.2449705480    3.8331684357
H       -0.0695258037   -2.3552565730   -1.0404315741
H       -1.4760304745   -1.3186700942   -1.1779073930
H        1.7218457801   -0.0913588265    1.6807384693
H        1.0991702793    1.4059194539    1.8736824361
29   
Generated by ForceBalance from scan.xyz: Frame 19 of 24
C       -2.2598520930    0.0681552829    1.4102298493
C       -3.1188100669   -0.6230344892    2.2347585620
C       -0.9160524996   -0.3594164628    1.3275393283
C       -2.5731925270   -1.7172771093    2.9371370304
C       -0.2637618409    1.1754738191   -0.6963360502
C        0.3203811075   -0.2001791976   -0.9465672797
C        0.1306425140    0.3061320484    0.4749462478
C       -0.2411520709   -1.6166002431   -2.9695922443
C       -2.8365305553   -3.5252247287    4.4602295703
C       -0.5322688542   -1.3318785480   -1.4907475113
N       -0.4729797044   -1.4010772885    2.0367344960
N       -1.2983530048   -2.0817381476    2.8433277915
N        1.3605994127    0.6894101340    1.1466958562
O       -3.4051003908   -2.4123654554    3.7453992814
H       -2.6015064282    0.9289304558    0.8444360816
H       -4.1641313422   -0.3585544863    2.3617662438
H        0.3611091254    2.0437872771   -0.8784693966
H       -1.3168421370    1.3132467179   -0.9258103648
H        1.3642620954   -0.2176009056   -1.2511472096
H       -0.4331877213   -0.7330175521   -3.5889096937
H       -0.8639869228   -2.4351244585   -3.3462011227
H        0.8071290079   -1.9010905291   -3.1131883814
H       -3.6619174027   -3.9394593460    5.0400649808
H       -2.0308570223   -3.1915945531    5.1192157416
H       -2.4404501594   -4.2703869670    3.7656062597
H       -0.3407333502   -2.2390071442   -0.9033614170
H       -1.5959638641   -1.1016559877   -1.3579981743
H        1.7280483060   -0.1337985309    1.6249286106
H        1.1484062620    1.3722208116    1.8749415917
29   
Generated by ForceBalance from scan.xyz: Frame 20 of 24
C       -2.1522212061   -0.1980438678    1.1978196567
C       -3.0129390374   -0.8864732516    2.0195474674
C       -0.7607897612   -0.4160408201    1.3410230546
C       -2.4285420682   -1.7712200103    2.9503344031
C       -0.0730241082    1.2527288350   -0.5710284236
C        0.3701556178   -0.1322651241   -0.9856874249
C        0.2934757962    0.2468291664    0.4958032195
C       -0.1466147533   -1.5622876378   -3.0110741647
C       -2.6564335879   -3.3586696970    4.7061117057
C       -0.5926845266   -1.1356985103   -1.6063531274
N       -0.2881347863   -1.2670462690    2.2549755947
N       -1.1178517408   -1.9465886014    3.0608959940
N        1.5854814763    0.4703477791    1.1167289860
O       -3.2644786993   -2.4587746540    3.7612360726
H       -2.5362790763    0.5043224453    0.4661752925
H       -4.0915741586   -0.7699845714    1.9792525068
H        0.6225017191    2.0761778150   -0.6971808760
H       -1.1157842251    1.5136503606   -0.7263255109
H        1.3984645988   -0.2063857241   -1.3305532982
H       -0.0766623059   -0.7005383929   -3.6844833991
H       -0.8509520179   -2.2769920567   -3.4500117116
H        0.8386653271   -2.0399275500   -2.9782401818
H       -3.4906141187   -3.8037971384    5.2493375718
H       -1.9966352569   -2.8164030118    5.3882486881
H       -2.0770212120   -4.1286472303    4.1901599343
H       -0.6547927611   -2.0280713023   -0.9706510775
H       -1.6064679535   -0.7221459440   -1.6525205926
H        1.8747714612   -0.4005822899    1.5625478871
H        1.4726792865    1.1410058910    1.8781042392
29   
Generated by ForceBalance from scan.xyz: Frame 21 of 24
C       -2.1409077299   -0.3811167680    1.0862990542
C       -2.9980726456   -1.0622577281    1.9157181615
C       -0.7468243145   -0.4718447414    1.3291050308
C       -2.4106341946   -1.8138410107    2.9564020948
C       -0.0839263715    1.3191635412   -0.4660829458
C        0.3053715840   -0.0282266451   -1.0266516992
C        0.2984704756    0.2096955675    0.4899814523
C       -0.1012070751   -1.5290924704   -3.0261489146
C       -2.6338379681   -3.2569077005    4.8327347552
C       -0.6908392664   -0.9410975157   -1.7372180809
N       -0.2727459698   -1.2052419356    2.3384199706
N       -1.1013162349   -1.8782325381    3.1537080517
N        1.6203784240    0.3500667730    1.0670438166
O       -3.2447881078   -2.4906600395    3.7783219649
H       -2.5305781784    0.2145364734    0.2682936651
H       -4.0772529410   -1.0395430859    1.7998601809
H        0.6266573090    2.1355681911   -0.5460488297
H       -1.1265638834    1.6152938638   -0.5379174536
H        1.3217779243   -0.0790652669   -1.4079678081
H        0.1850557528   -0.7379164293   -3.7280947648
H       -0.8232661282   -2.1808898145   -3.5293478536
H        0.7935571366   -2.1229791285   -2.8099732202
H       -3.4661080218   -3.7160522256    5.3671675888
H       -2.0575702424   -2.6091893321    5.4984021989
H       -1.9702594506   -4.0218210734    4.4211663009
H       -0.9890082805   -1.7664680961   -1.0799148194
H       -1.6097753838   -0.3939589412   -1.9790309668
H        1.9060960567   -0.5591361548    1.4308374516
H        1.5541202089    0.9511068457    1.8896373291
29   
Generated by ForceBalance from scan.xyz: Frame 22 of 24
C       -2.1371078580   -0.3095258880    1.0837864424
C       -2.9733568041   -1.0000833624    1.9270757499
C       -0.7366431024   -0.4159036151    1.2796814653
C       -2.3591082407   -1.7766348352    2.9331851207
C       -0.1239316235    1.4030224003   -0.5031862018
C        0.2503694823    0.0676550413   -1.0991602302
C        0.2863678590    0.2752164538    0.4214960899
C       -0.0903381817   -1.6710002737   -2.9115728970
C       -2.5340358897   -3.2542755899    4.7878319647
C       -0.7579644852   -0.8232190420   -1.8207212748
N       -0.2367736974   -1.1727163095    2.2587863729
N       -1.0444515148   -1.8550413455    3.0867949695
N        1.6238447821    0.4054279954    0.9641634521
O       -3.1718945687   -2.4632215929    3.7681952793
H       -2.5475776932    0.3059532712    0.2907761415
H       -4.0554559657   -0.9663702684    1.8466262511
H        0.5837858068    2.2211717944   -0.5902384324
H       -1.1684017653    1.6992989928   -0.5373869377
H        1.2566989960    0.0353181355   -1.5083621096
H        0.3901994297   -1.0376159503   -3.6654235337
H       -0.8224898414   -2.3054793427   -3.4222259344
H        0.6792351133   -2.3229379079   -2.4837435056
H       -3.3526871711   -3.7172099485    5.3397384239
H       -1.9315990384   -2.6238973094    5.4469315651
H       -1.8902546088   -4.0162068494    4.3408388781
H       -1.2612795839   -1.4923634432   -1.1143337933
H       -1.5456350991   -0.2095070693   -2.2755425721
H        1.9168169605   -0.5088244134    1.3089802601
H        1.5814447131    0.9971856686    1.7949917366
29   
Generated by ForceBalance from scan.xyz: Frame 23 of 24
C       -1.9872792170   -0.1981788556    1.3103800444
C       -2.8194952047   -0.9352000867    2.1191977619
C       -0.5887567633   -0.3998319963    1.4125889891
C       -2.2014428693   -1.8507396339    2.9968327681
C        0.0300979791    1.4597206149   -0.3398465501
C        0.4170054463    0.1320235760   -0.9436386871
C        0.4336092531    0.3207783448    0.5767306709
C        0.1090489438   -1.8280617642   -2.5212486132
C       -2.3665106755   -3.5168800254    4.6856077691
C       -0.5831588697   -0.7328246300   -1.6996237011
N       -0.0842374323   -1.2842931212    2.2764325631
N       -0.8862109862   -2.0114675431    3.0688788090
N        1.7657056685    0.4462305955    1.1363769099
O       -3.0085916261   -2.5859919745    3.7948061354
H       -2.3993056157    0.5271866013    0.6173162025
H       -3.9003612515   -0.8345507907    2.1059457146
H        0.7363714653    2.2807470014   -0.4079475341
H       -1.0144597574    1.7530837334   -0.3900142495
H        1.4261322478    0.1095381203   -1.3477342943
H        0.7860618577   -1.3918569667   -3.2639413465
H       -0.6220557763   -2.4451969617   -3.0542272684
H        0.7008487870   -2.4879598239   -1.8771569594
H       -3.1817052722   -3.9967586315    5.2280601426
H       -1.6981043545   -2.9950214799    5.3752157200
H       -1.7892950086   -4.2556136152    4.1235875574
H       -1.3017881732   -1.1935739532   -1.0136240388
H       -1.1709220978   -0.0994787989   -2.3766134741
H        2.0592970634   -0.4750083891    1.4617943696
H        1.7136578932    1.0227584170    1.9772549800
29   
Generated by ForceBalance from scan.xyz: Frame 24 of 24
C       -1.9656407514    0.2379041571    1.6086977995
C       -2.7555952721   -0.5128389300    2.4506347475
C       -0.7024168178   -0.2728323156    1.2386658874
C       -2.2239279916   -1.7468378361    2.8779507261
C       -0.2304723318    1.4615961240   -0.6724894877
C        0.2834653125    0.1143221873   -1.1311731262
C        0.2669893760    0.4543245482    0.3462419293
C        0.0770862825   -2.1938133276   -2.1549312220
C       -2.4350350276   -3.7578744069    4.1307794591
C       -0.6502245877   -0.9009112904   -1.7660136601
N       -0.2646270029   -1.4492442650    1.6960367436
N       -1.0224699097   -2.1881994582    2.5169196702
N        1.5735166044    0.7365402516    0.9162715524
O       -2.9888893609   -2.5008579312    3.6989286347
H       -2.2976914924    1.2037476403    1.2409529798
H       -3.7376190883   -0.1950441275    2.7873969736
H        0.3933862553    2.3349077064   -0.8320457355
H       -1.3000187905    1.6362218299   -0.7563356678
H        1.2856348336    0.1360913278   -1.5538444600
H        0.8834825284   -1.9880256000   -2.8677325246
H       -0.6080182769   -2.9102401329   -2.6209100046
H        0.5193522204   -2.6707655002   -1.2736731314
H       -3.2001138054   -4.1980917419    4.7709816673
H       -1.5079826262   -3.6016118731    4.6882542680
H       -2.2288091679   -4.4049842482    3.2744447215
H       -1.4835346435   -1.1289797405   -1.0920130545
H       -1.0967630637   -0.4559259331   -2.6651205204
H        1.9725865329   -0.1432007573    1.2453022485
H        1.4639832468    1.3300949728    1.7390404236
