19   

C        2.1670136234   -0.4885451409   -0.0248290992
C        0.8667346726   -0.3835904149    0.4526152917
C        3.1485067675   -1.0993540357    0.7575350325
C        0.5593290693   -0.8885956435    1.7143608657
C        3.8455313841   -3.0606837139    3.9269559011
C        6.1165535587   -2.6573390509    3.1789162996
C        2.8595678527   -1.6261686417    2.0394869149
C        1.5354982797   -1.5023338787    2.5111865296
C        3.9436541638   -2.2531196598    2.8176715337
N        5.2559536655   -2.0428233336    2.4045458545
O        1.1466514620   -1.9387537854    3.7453341489
S        5.4111197463   -3.5708182353    4.4988672316
H        2.4214719550   -0.0965156331   -1.0030177123
H        0.1007713326    0.0908995795   -0.1511295807
H        4.1511203812   -1.1633232920    0.3488858062
H       -0.4569956602   -0.7933609105    2.0757299557
H        2.9212883236   -3.3667613262    4.3938448286
H        7.1866665556   -2.6074577188    3.0149791375
H        0.2151392748   -1.7095228883    3.9017905992
19   

C        2.1435889232   -0.5681230836   -0.0585202697
C        0.8650159206   -0.3924084003    0.4603202603
C        3.1269634050   -1.1929309569    0.7111480429
C        0.5807644772   -0.8386838979    1.7508688309
C        3.8234142130   -3.2201148279    3.7912725087
C        6.1011834705   -2.5353378271    3.3018531469
C        2.8553042259   -1.6653321477    2.0135402712
C        1.5598704631   -1.4652098420    2.5330394600
C        3.9427949656   -2.2888855373    2.7904260251
N        5.2532108141   -1.9092502586    2.5217701331
O        1.2180335935   -1.8460220461    3.8001118774
S        5.3794295668   -3.6590931902    4.4425738049
H        2.3792515273   -0.2180022738   -1.0570900456
H        0.0985678074    0.0939166896   -0.1332970104
H        4.1182577536   -1.3137742875    0.2872644433
H       -0.4160766010   -0.6866837812    2.1455135586
H        2.8837124213   -3.6343884927    4.1291992574
H        7.1713030280   -2.3731061254    3.2465892040
H        0.3158423241   -1.5491280958    4.0063675298
19   

C        2.1117993866   -0.6269006334   -0.0850661746
C        0.8597471483   -0.3830857233    0.4738528183
C        3.0969971212   -1.2689344880    0.6687554788
C        0.6036276275   -0.7768485131    1.7885319608
C        3.8160945312   -3.3498642767    3.6511795897
C        6.0543156655   -2.4236832450    3.4473911440
C        2.8463203669   -1.6940259874    1.9875803346
C        1.5852664876   -1.4203775326    2.5526846005
C        3.9396097116   -2.3151981969    2.7622582456
N        5.2205586247   -1.7880727791    2.6590529346
O        1.2896816249   -1.7620540235    3.8427288977
S        5.3477313691   -3.7278056065    4.3922662933
H        2.3253992255   -0.3135750301   -1.1006691017
H        0.0927608372    0.1171933246   -0.1073353229
H        4.0740969850   -1.4396514498    0.2291139351
H       -0.3703788556   -0.5714815069    2.2147308202
H        2.8812780522   -3.8506060235    3.8648031563
H        7.1044708019   -2.1640681751    3.5130902104
H        0.4178171659   -1.4116909916    4.0907499236
19   

C        2.0836865925   -0.6758157556   -0.1004905559
C        0.8617519554   -0.3717023262    0.4973462795
C        3.0776857768   -1.3228796519    0.6380591034
C        0.6440824116   -0.7094054611    1.8353341772
C        3.8548284367   -3.4622140631    3.4858445222
C        6.0046390826   -2.3321321158    3.6158255940
C        2.8593909276   -1.6939537230    1.9760559761
C        1.6346546934   -1.3581410415    2.5827173849
C        3.9601996289   -2.3158469467    2.7465701108
N        5.1844305678   -1.6688644254    2.8359197104
O        1.3888273194   -1.6580722250    3.8933396819
S        5.3482190452   -3.8072711440    4.3157540972
H        2.2667827143   -0.4040919602   -1.1338808917
H        0.0885890222    0.1324231582   -0.0722139992
H        4.0350362756   -1.5387110663    0.1757100389
H       -0.3052750668   -0.4580955283    2.2914600309
H        2.9497075746   -4.0509735957    3.5522829170
H        7.0149307763   -1.9953980702    3.8169655265
H        0.5452618100   -1.2667286829    4.1749843469
19   

C        2.0516121883   -0.7300316562   -0.1249530397
C        0.8617461153   -0.3592450664    0.5012919244
C        3.0523838614   -1.3743169759    0.6074277997
C        0.6811951659   -0.6294899557    1.8605875328
C        3.9141954201   -3.5735411786    3.2568948321
C        5.9224152774   -2.3051726322    3.7862404085
C        2.8696401018   -1.6710326223    1.9676633929
C        1.6780546159   -1.2756505601    2.6013596980
C        3.9665434874   -2.3096999314    2.7380638445
N        5.1076812493   -1.5869788673    3.0506410465
O        1.4734553029   -1.5233366719    3.9296516300
S        5.3606427479   -3.9307750159    4.1616845507
H        2.2035492982   -0.5129630827   -1.1761738563
H        0.0837750872    0.1424142757   -0.0638866977
H        3.9844576896   -1.6451878577    0.1233710356
H       -0.2438742570   -0.3304585992    2.3373473033
H        3.0718661967   -4.2401928748    3.1301646463
H        6.8743137395   -1.9254045009    4.1386588425
H        0.6554405330   -1.0941319667    4.2301098930
19   

C        1.9971516720   -0.8307555282   -0.1428235965
C        0.8440690453   -0.3838263228    0.5031794539
C        3.0098614416   -1.4538190403    0.5916966980
C        0.7088129474   -0.5621786849    1.8830687746
C        4.0408610614   -3.6378935587    2.9839237459
C        5.8406343171   -2.3042895059    3.9369301608
C        2.8781835428   -1.6409143705    1.9766401346
C        1.7169939043   -1.1868164688    2.6268477622
C        3.9672859016   -2.2933378156    2.7492391525
N        4.9962522580   -1.5378159956    3.2890694381
O        1.5526936721   -1.3594047002    3.9724074846
S        5.4534105767   -4.0218747816    3.9305649940
H        2.1097759542   -0.6910998091   -1.2119869993
H        0.0571864734    0.1014906842   -0.0639333094
H        3.9100827096   -1.7908804934    0.0895308859
H       -0.1910605344   -0.2119716784    2.3730212906
H        3.3076145379   -4.3514361922    2.6329621655
H        6.7172322375   -1.9097085767    4.4373333232
H        0.7585972733   -0.8914306122    4.2782459688
19   

C        1.9280926468   -0.9459566509   -0.1465786590
C        0.8174029389   -0.4163464521    0.5105535831
C        2.9494916931   -1.5520710036    0.5898659100
C        0.7301068695   -0.5009194363    1.9029728804
C        4.2057612659   -3.6350099301    2.7252016866
C        5.7567987835   -2.3159967435    4.0592403989
C        2.8753465032   -1.6291669692    1.9902385441
C        1.7468023918   -1.1080356186    2.6498544149
C        3.9591757243   -2.2904790903    2.7581762694
N        4.8570645726   -1.5413047855    3.5026292095
O        1.6182996618   -1.2002380682    4.0071403998
S        5.5971794124   -4.0315710754    3.6976814622
H        2.0001784597   -0.8848308684   -1.2265785741
H        0.0239038039    0.0564070045   -0.0579588931
H        3.8136584819   -1.9577226371    0.0753240291
H       -0.1411958199   -0.0943480060    2.4009667914
H        3.6068891726   -4.3446430235    2.1704376015
H        6.5478308263   -1.9275399777    4.6900137626
H        0.8526085735   -0.6861050501    4.3103010368
19   

C        1.8594147057   -1.0479790201   -0.1418183341
C        0.7927373293   -0.4435764785    0.5219155868
C        2.8860332235   -1.6479809167    0.5918235838
C        0.7532855632   -0.4501888054    1.9184284614
C        4.3649495690   -3.5874947986    2.5343043440
C        5.6663092416   -2.3423841543    4.1705280141
C        2.8662811032   -1.6427521757    1.9977907942
C        1.7750061765   -1.0507923570    2.6642081135
C        3.9567111300   -2.2996638409    2.7525972833
N        4.7180897646   -1.5891791959    3.6682852435
O        1.6769058502   -1.0713313749    4.0270003418
S        5.7297054847   -3.9855036150    3.5432770748
H        1.8935246615   -1.0493397690   -1.2254234695
H       -0.0049171140    0.0250566673   -0.0441973726
H        3.7150050051   -2.1094116647    0.0666323834
H       -0.0872025717    0.0105830514    2.4221467783
H        3.8928618136   -4.2602187323    1.8311344656
H        6.3673484162   -1.9769946499    4.9118224188
H        0.9403432786   -0.5129042879    4.3227848524
19   

C        1.7952633854   -1.1383987174   -0.1359380352
C        0.7723149019   -0.4642203433    0.5264189475
C        2.8224368969   -1.7376495641    0.5966860395
C        0.7776752944   -0.4008185212    1.9209754636
C        4.4971948623   -3.5238015290    2.3966496277
C        5.5694666384   -2.4038012250    4.2698783959
C        2.8506293493   -1.6674839402    2.0033414641
C        1.7998531746   -1.0001818740    2.6679779281
C        3.9562470365   -2.3126776686    2.7405260045
N        4.5880996783   -1.6747531811    3.7975188343
O        1.7244625008   -0.9485156345    4.0313556183
S        5.8277007197   -3.9355811958    3.4450227296
H        1.7962156913   -1.1933350962   -1.2187058834
H       -0.0261371729    0.0044754662   -0.0385309020
H        3.6173562417   -2.2459821559    0.0627258249
H       -0.0309832536    0.1139333645    2.4245321508
H        4.1347526234   -4.1427747654    1.5873337928
H        6.1830380574   -2.0827775913    5.1035065186
H        1.0096010285   -0.3551251468    4.3107110312
19   

C        1.7318374475   -1.2157205540   -0.1149190952
C        0.7459224684   -0.4881635199    0.5430234179
C        2.7646015866   -1.8071144121    0.6152337139
C        0.7961847855   -0.3622870806    1.9309332669
C        4.6334764270   -3.4271526456    2.2959493209
C        5.4842028144   -2.4757247753    4.3629481143
C        2.8386540050   -1.6842870509    2.0199404236
C        1.8242885417   -0.9527560100    2.6779826754
C        3.9683649781   -2.3099472105    2.7363910260
N        4.4733464975   -1.7747401751    3.9121727520
O        1.7721989991   -0.8251314121    4.0373559343
S        5.9294255356   -3.8610493439    3.3781504444
H        1.7013069901   -1.3170839439   -1.1939223571
H       -0.0573501997   -0.0248859417   -0.0195782372
H        3.5285649135   -2.3479183464    0.0694356885
H        0.0157691461    0.1968028378    2.4317889364
H        4.3773550569   -3.9809140030    1.4036332392
H        6.0106997088   -2.2175254947    5.2743087645
H        1.0635987206   -0.2157868523    4.2964904930
19   

C        1.6719301331   -1.2958740971   -0.0962389952
C        0.7195526886   -0.5206319420    0.5520666229
C        2.7137341090   -1.8726747759    0.6319011414
C        0.8156653067   -0.3300248802    1.9283898469
C        4.7709528199   -3.3079009117    2.2146155226
C        5.3904264491   -2.5887309912    4.4473136476
C        2.8346265341   -1.6949446439    2.0310778532
C        1.8538211163   -0.9038042587    2.6755777406
C        3.9803939545   -2.3091725007    2.7348592227
N        4.3552206230   -1.9157162088    4.0113073160
O        1.8352305541   -0.6840068279    4.0238384813
S        6.0240564039   -3.7833733460    3.3294113564
H        1.6087523686   -1.4466790302   -1.1680476752
H       -0.0913373871   -0.0684965208   -0.0086948001
H        3.4417934411   -2.4480233077    0.0749826092
H        0.0627245003    0.2715895250    2.4220083794
H        4.6360019672   -3.7687459294    1.2472384943
H        5.8247158526   -2.4196879287    5.4257004618
H        1.1170302284   -0.0779154605    4.2624193614
19   

C        1.6188220259   -1.3746886729   -0.0698341162
C        0.6996165294   -0.5525250977    0.5659364283
C        2.6724576277   -1.9334012655    0.6549730068
C        0.8426652886   -0.2952912442    1.9262832508
C        4.9221541794   -3.1372737919    2.1610290223
C        5.2636926785   -2.7553280904    4.5308187128
C        2.8437008402   -1.6895366984    2.0406820030
C        1.8946340882   -0.8476209916    2.6708981702
C        3.9840958599   -2.3153326925    2.7462179541
N        4.2054504137   -2.1154235975    4.1015566806
O        1.9316185002   -0.5238151597    3.9975693788
S        6.1143216047   -3.6826263075    3.3102950687
H        1.5171509154   -1.5819732293   -1.1291883317
H       -0.1214057337   -0.1153338822    0.0080606014
H        3.3539696405   -2.5646601923    0.1016631242
H        0.1179702017    0.3481143758    2.4093863094
H        4.9448567966   -3.4274079965    1.1217841813
H        5.5898050749   -2.7150219776    5.5635054051
H        1.1942563375    0.0616310446    4.2286365724
19   

C        1.5756664172   -1.4584749575   -0.0467070456
C        0.6884161397   -0.5879371502    0.5723792889
C        2.6400387561   -1.9991265294    0.6765196716
C        0.8749935118   -0.2620325784    1.9135722890
C        5.0438391156   -2.9391119922    2.1382301962
C        5.1401746113   -2.9387317193    4.5624601195
C        2.8524463632   -1.6844867359    2.0402538617
C        1.9398169773   -0.7938169836    2.6542735456
C        3.9818756343   -2.3175588396    2.7538159092
N        4.0602336826   -2.3312744354    4.1388685593
O        2.0525044055   -0.3816209010    3.9519111747
S        6.1826494866   -3.5674958756    3.2989956042
H        1.4366686028   -1.7221910603   -1.0891275878
H       -0.1415154339   -0.1659552145    0.0159911234
H        3.2882173968   -2.6899396067    0.1531637736
H        0.1792985183    0.4228685834    2.3820149064
H        5.1845072455   -3.0197497761    1.0704640334
H        5.3725077386   -3.0464432164    5.6154768613
H        1.3048802760    0.1846642431    4.1977916556
19   

C        2.0376316144   -0.4603496363    0.0386727039
C        0.7799030451   -0.3354781352    0.6190388640
C        3.0744198308   -1.0692541649    0.7484385186
C        0.5689171780   -0.8157568783    1.9111401612
C        5.3266798931   -1.9331017524    2.5160748270
C        4.9375979644   -3.6935760325    4.1441839281
C        2.8792801933   -1.5699764579    2.0541494782
C        1.6001353876   -1.4262038984    2.6375555159
C        4.0058221477   -2.2274820184    2.7466454074
N        3.8026419027   -3.2410719359    3.6713969207
O        1.3246006131   -1.8231251833    3.9156188730
S        6.3768817370   -2.9280426072    3.4887381370
H        2.2097932733   -0.0912407923   -0.9661013875
H       -0.0295422840    0.1347191760    0.0712197267
H        4.0355501823   -1.1704950723    0.2585526484
H       -0.4118279099   -0.7014020705    2.3556050975
H        5.6744810336   -1.1697850660    1.8342681830
H        4.9857689579   -4.4856103149    4.8822928888
H        0.3782858108   -1.7294027650    4.1060633337
19   

C        2.0238897168   -0.5515167594   -0.0100161968
C        0.7818242397   -0.3666929808    0.5922417902
C        3.0620950033   -1.1521394087    0.7057598715
C        0.5875272293   -0.7762728633    1.9125645352
C        5.3007594519   -1.8001265118    2.6558351115
C        4.9480855044   -3.7768958768    4.0274330532
C        2.8761670080   -1.5861203729    2.0330091111
C        1.6211216055   -1.3768272286    2.6427084933
C        3.9996448211   -2.2186634689    2.7538679696
N        3.8134622705   -3.3577751392    3.5227665322
O        1.3867143640   -1.7104300871    3.9468989375
S        6.3599552677   -2.8252245300    3.5865173468
H        2.1824347536   -0.2338890717   -1.0344093783
H       -0.0279021109    0.0972547022    0.0395523064
H        4.0176124558   -1.3000748286    0.2153418111
H       -0.3784433886   -0.6138983015    2.3740913730
H        5.6203183424   -0.9399036780    2.0836589658
H        5.0133227841   -4.6514691495    4.6640855505
H        0.4461982881   -1.6070325535    4.1611738537
19   

C        1.9988866132   -0.6496084354   -0.0468864663
C        0.7808580395   -0.3908072632    0.5800427142
C        3.0375092145   -1.2490996108    0.6700798529
C        0.6102772420   -0.7250687564    1.9257783516
C        5.2499002864   -1.6931706926    2.8212558063
C        4.9785702038   -3.8553783443    3.9039731389
C        2.8697709514   -1.6077844189    2.0193097981
C        1.6449220078   -1.3236910473    2.6551628275
C        3.9906741597   -2.2258010665    2.7621589508
N        3.8499678210   -3.4689838448    3.3602466551
O        1.4504788046   -1.5965968829    3.9799095435
S        6.3261678523   -2.7408765649    3.7061041954
H        2.1384536937   -0.3889179521   -1.0899250833
H       -0.0283969842    0.0724902625    0.0261331192
H        3.9788794670   -1.4527195047    0.1717828005
H       -0.3357354006   -0.5067029869    2.4051923479
H        5.5268186850   -0.7458477006    2.3787988261
H        5.0777188690   -4.7979982176    4.4294448354
H        0.5204456448   -1.4606221271    4.2215778221
19   

C        1.9667015153   -0.7588031816   -0.0876254936
C        0.7778527784   -0.4198812033    0.5586522269
C        3.0063905759   -1.3526360318    0.6330732289
C        0.6362203483   -0.6711137322    1.9262685914
C        5.1634975882   -1.5977477058    3.0336926073
C        5.0291006659   -3.9134770387    3.7715671113
C        2.8668449360   -1.6203856579    2.0047082277
C        1.6725214247   -1.2635770587    2.6578070826
C        3.9855171922   -2.2360653805    2.7606188658
N        3.9215553936   -3.5605277351    3.1647263900
O        1.5137315476   -1.4699788941    3.9992281541
S        6.2594029635   -2.6586951367    3.8777339732
H        2.0827803700   -0.5645382798   -1.1478701993
H       -0.0316690642    0.0393584653    0.0017699569
H        3.9268554388   -1.6193517491    0.1254340500
H       -0.2878093993   -0.3952506452    2.4187482557
H        5.3708295790   -0.5717181101    2.7611752197
H        5.1803876520   -4.9091742602    4.1718239289
H        0.5978152371   -1.2865951465    4.2637815642
19   

C        1.9275084656   -0.8780789204   -0.1229699985
C        0.7746318157   -0.4545057392    0.5389342846
C        2.9746925428   -1.4541170868    0.6015329596
C        0.6739883231   -0.6093037422    1.9246060249
C        5.0344581772   -1.5357150920    3.3047935989
C        5.0908799984   -3.9460575261    3.6409221856
C        2.8824623781   -1.6076483833    1.9937801459
C        1.7184311544   -1.1834384250    2.6589806755
C        3.9972624715   -2.2333371132    2.7517472240
N        4.0352778011   -3.6058348908    2.9408208167
O        1.5982853477   -1.3109332389    4.0141990691
S        6.1371768096   -2.6129728952    4.1186710871
H        2.0094436809   -0.7649064865   -1.1980403374
H       -0.0403218535   -0.0085988873   -0.0208439498
H        3.8655552247   -1.7925697477    0.0838534071
H       -0.2252753579   -0.2758636803    2.4272133605
H        5.1359030845   -0.4604153857    3.2464349892
H        5.3068802911   -4.9750964769    3.9034937978
H        0.6982164896   -1.0799982850    4.2964602158
19   

C        1.8838584242   -0.9847744080   -0.1380537932
C        0.7670292838   -0.4820940287    0.5294005070
C        2.9396743185   -1.5386787235    0.5909531593
C        0.7089844710   -0.5418606516    1.9245470539
C        4.8738753462   -1.5518504144    3.5671597635
C        5.1600390199   -3.9671398482    3.4865347060
C        2.9000273873   -1.5809635377    1.9938930511
C        1.7627685086   -1.0938961785    2.6626528570
C        4.0094630124   -2.2203129983    2.7454646706
N        4.1693332474   -3.5971346177    2.7104604217
O        1.6754592656   -1.1411089619    4.0256388154
S        5.9829656606   -2.6592992554    4.3300191466
H        1.9305915007   -0.9526626849   -1.2206684835
H       -0.0547759767   -0.0530956912   -0.0335573863
H        3.7990844493   -1.9460464731    0.0695027420
H       -0.1663558964   -0.1548891158    2.4310102243
H        4.8453083260   -0.4823078071    3.7261172819
H        5.4519685945   -5.0045244595    3.6011846864
H        0.7899765042   -0.8668190302    4.3160288436
19   

C        1.8660439824   -1.0522180528   -0.1394390860
C        0.7800250617   -0.4777536346    0.5190309892
C        2.9191053515   -1.5969975378    0.5997833321
C        0.7495943373   -0.4593686368    1.9155953808
C        4.7292137523   -1.6237002125    3.7642610871
C        5.2583991556   -3.9562313236    3.3227311992
C        2.9133908422   -1.5578393019    2.0047734382
C        1.8007401122   -1.0028698868    2.6641801094
C        4.0132735737   -2.2063006718    2.7544126991
N        4.3103826039   -3.5406842167    2.5168128188
O        1.7265251758   -0.9791875651    4.0287516185
S        5.8688073487   -2.7503982447    4.4497611303
H        1.8910472415   -1.0842699540   -1.2227680574
H       -0.0402202671   -0.0557909612   -0.0514661857
H        3.7524288059   -2.0623006426    0.0840945735
H       -0.1046028717   -0.0200061447    2.4153891101
H        4.5785144807   -0.6046635518    4.0946377554
H        5.6384624005   -4.9708678489    3.2982108800
H        0.8542004441   -0.6585934040    4.3122047388
19   

C        1.8461863871   -1.1071168933   -0.1407372611
C        0.7901499537   -0.4632094258    0.4992910877
C        2.8880068507   -1.6523381080    0.6131953574
C        0.7793348606   -0.3757840765    1.8925824848
C        4.6017069989   -1.7064187741    3.8999339622
C        5.3778221633   -3.8938477359    3.1775501854
C        2.9038884267   -1.5510405945    2.0175953122
C        1.8188613394   -0.9201350578    2.6572641841
C        3.9978860273   -2.1954652065    2.7720167351
N        4.4428247271   -3.4490842495    2.3721973756
O        1.7458588333   -0.8283555498    4.0190912603
S        5.8003918080   -2.8185733113    4.5034518244
H        1.8578712173   -1.1920146408   -1.2214328750
H       -0.0218659441   -0.0405077577   -0.0823275448
H        3.6977679391   -2.1658293899    0.1054879815
H       -0.0530839915    0.1178372090    2.3783052529
H        4.3495458381   -0.7572008348    4.3534307011
H        5.8564234000   -4.8560168407    3.0371431422
H        0.8896282932   -0.4528266213    4.2841640339
19   

C        1.8195916388   -1.1736509201   -0.1341851802
C        0.8020322026   -0.4579296715    0.4880180678
C        2.8455474246   -1.7322155641    0.6308109943
C        0.8151885298   -0.3112292295    1.8750237361
C        4.4936344254   -1.8275399030    4.0007153937
C        5.5079878497   -3.8231177486    3.0597664451
C        2.8852784093   -1.5821581813    2.0340514310
C        1.8383270413   -0.8688231825    2.6530040658
C        3.9770513763   -2.2214147237    2.7919360845
N        4.5700323002   -3.3641459487    2.2665726251
O        1.7673124442   -0.7126276817    4.0086968653
S        5.7637939256   -2.8972803792    4.5302674767
H        1.8159840609   -1.3018742369   -1.2106650520
H        0.0022136486   -0.0238223115   -0.1020476398
H        3.6252057733   -2.2908292964    0.1238310625
H        0.0116006614    0.2402398566    2.3469018364
H        4.1598281380   -0.9597111361    4.5523514598
H        6.0859224971   -4.7093877239    2.8251478733
H        0.9362078144   -0.2708953657    4.2511306268
19   

C        1.7713228947   -1.2485007068   -0.1249638034
C        0.7974218990   -0.4626228782    0.4780337345
C        2.7841113492   -1.8174699502    0.6490174566
C        0.8428453516   -0.2552703793    1.8551566527
C        4.3732468294   -1.9765799061    4.0880612295
C        5.6230593579   -3.7283420522    2.9704537895
C        2.8557750506   -1.6159827465    2.0485475311
C        1.8528328412   -0.8222540825    2.6444380713
C        3.9477419450   -2.2509626867    2.8090124676
N        4.6850494027   -3.2543645711    2.1872594916
O        1.7967090283   -0.5883426762    3.9886550644
S        5.7117257666   -2.9894688982    4.5580760978
H        1.7461866333   -1.4216655772   -1.1948568162
H        0.0079507798   -0.0190471778   -0.1188955100
H        3.5266408693   -2.4231586249    0.1409707147
H        0.0729495856    0.3540498317    2.3118437987
H        3.9540777105   -1.2198588225    4.7342525550
H        6.2973126653   -4.5178706551    2.6597574380
H        1.0029050229   -0.0704542684    4.2040777065
19   

C        1.6904795272   -1.3422053121   -0.1042462051
C        0.7646588631   -0.4925131627    0.4856444507
C        2.7059806455   -1.9085723633    0.6676018720
C        0.8634543951   -0.2161265483    1.8470697036
C        4.2373420021   -2.1651728128    4.1486918164
C        5.7281400309   -3.6102694419    2.9005255257
C        2.8292847410   -1.6439767760    2.0548688362
C        1.8779748236   -0.7775463467    2.6351328430
C        3.9262528502   -2.2756264943    2.8111664720
N        4.8000085815   -3.1118295343    2.1214577181
O        1.8832738780   -0.4405957414    3.9576894151
S        5.6381270617   -3.1102761088    4.5766708628
H        1.6265642359   -1.5668363887   -1.1629043737
H       -0.0264852709   -0.0497241259   -0.1096548545
H        3.4055394611   -2.5657764756    0.1629721443
H        0.1336704915    0.4485459626    2.2922885367
H        3.7008354389   -1.5738622473    4.8741250994
H        6.4958746163   -4.2827151080    2.5359881365
H        1.1472309380    0.1643649923    4.1501101861
