28   

C       -0.9868085233    0.3279995397    0.5213542628
C       -2.0413932585   -0.5891085003    0.6203852148
C       -1.7879276300    1.4790310820    2.5030988429
C       -3.9210815156    0.3917739006    3.5397769427
C       -2.8340935980    0.5555428723    2.5898384895
C       -0.8417971743    1.3741754624    1.4577487744
C       -2.9514497411   -0.4557121435    1.6613380522
C       -4.6570454247   -0.7109892841    3.1426344409
C       -5.7902527125   -1.3931287484    3.7610273493
C        1.2175083706    2.2843980633    2.5627818771
C       -0.2032491051    3.7698106524    1.0968240471
C        0.3122397222    2.3471473545    1.3291422273
N       -4.0555024385   -1.2372221347    1.9767745740
O       -6.1773432009   -2.5078616311    3.4361591648
O       -6.3730426917   -0.7085995547    4.7732264949
H       -0.2750070621    0.2222464797   -0.2892210187
H       -2.1453352117   -1.3919094950   -0.0985887178
H       -1.7103059263    2.2650985292    3.2439069589
H       -4.1129481518    0.9998221635    4.4156278875
H        0.6733477499    2.5782995866    3.4653257912
H        2.0726381071    2.9561020197    2.4384752506
H        1.5961184228    1.2662402308    2.6982313807
H       -0.8000993423    4.1146191434    1.9465401415
H       -0.8254241595    3.7999982231    0.1966685876
H        0.6363650552    4.4581625147    0.9588074981
H        0.9161495482    2.0658642029    0.4598405627
H       -4.3675050154   -2.0775446788    1.4940316342
H       -7.0865825236   -1.2855025411    5.0895331669
28   

C       -0.7198883524    0.1401494335    0.7963176402
C       -1.7296879341   -0.8214944076    0.9335673639
C       -1.8745256997    1.5912455410    2.3629592304
C       -4.0728014776    0.5522982142    3.3072384975
C       -2.8727054601    0.6208114993    2.4919797641
C       -0.7741521027    1.3589370747    1.5062498941
C       -2.7949732251   -0.5594649976    1.7857991855
C       -4.6811426212   -0.6639054536    3.0512502774
C       -5.8041141019   -1.3321243718    3.7081728754
C        1.0246695567    2.6517184022    2.6878495611
C       -0.1997210202    3.6675448529    0.7276263412
C        0.3380547821    2.3751899032    1.3467959444
N       -3.8872965226   -1.3551866932    2.1072909653
O       -5.9340257219   -2.5466154377    3.7764410529
O       -6.6714147555   -0.4928331787    4.3209822052
H        0.1139940520   -0.0664711486    0.1353886922
H       -1.6791475958   -1.7573106238    0.3914500922
H       -1.9508497088    2.5105938741    2.9301290388
H       -4.4113662707    1.2915612963    4.0230577477
H        0.3238586330    3.0856558083    3.4072655260
H        1.8561342079    3.3498974018    2.5495291735
H        1.4224671798    1.7208002792    3.1043574548
H       -0.9494959916    4.1303484468    1.3763673935
H       -0.6598444968    3.4541843002   -0.2424515420
H        0.6159412865    4.3807150435    0.5730559119
H        1.0933454688    1.9682024735    0.6660536417
H       -4.0558076855   -2.3095199469    1.7960554570
H       -7.3338109473   -1.0708978907    4.7321054250
28   

C       -0.7457299308    0.1695096258    0.7498503652
C       -1.7618551392   -0.7871704819    0.8755050954
C       -1.8847049938    1.6036171190    2.3431427449
C       -4.0776410552    0.5582784488    3.2905572827
C       -2.8886579534    0.6377483232    2.4609049015
C       -0.7887325923    1.3771414007    1.4793670727
C       -2.8221374079   -0.5315542447    1.7360269440
C       -4.6936213610   -0.6508097569    3.0216005853
C       -5.7700641126   -1.3410629969    3.7408592179
C        1.0182021651    2.6412057154    2.6816548146
C       -0.1936832328    3.6897230292    0.7310134726
C        0.3324232393    2.3859739065    1.3357275005
N       -3.9133638675   -1.3294869275    2.0567324548
O       -5.7641513957   -2.5341678982    4.0049147043
O       -6.7448554972   -0.5214728768    4.1982798178
H        0.0852263911   -0.0330774478    0.0840038863
H       -1.7182930413   -1.7156083935    0.3202817707
H       -1.9514284884    2.5132185068    2.9269835948
H       -4.3946647426    1.2787812634    4.0346861933
H        0.3196726432    3.0729830305    3.4045650605
H        1.8558942752    3.3338432277    2.5533190597
H        1.4072077588    1.7022981570    3.0884339533
H       -0.9420209458    4.1498408081    1.3833317056
H       -0.6524533849    3.4916428095   -0.2429259979
H        0.6277507409    4.3985924246    0.5876627329
H        1.0863229900    1.9810912225    0.6521948470
H       -4.0713210756   -2.2857700464    1.7472969116
H       -7.3549367166   -1.1004970880    4.6824115280
28   

C       -0.7799359297    0.1832029356    0.7115335571
C       -1.8029519907   -0.7670414944    0.8309395933
C       -1.8951168485    1.6028658945    2.3340918001
C       -4.0827710294    0.5567259811    3.2907124850
C       -2.9055357589    0.6430702211    2.4458089336
C       -0.8075117850    1.3803300732    1.4589047777
C       -2.8545351836   -0.5157868634    1.7034895574
C       -4.7088442116   -0.6439031980    3.0121550669
C       -5.7521873969   -1.3441299480    3.7827636174
C        1.0146193438    2.6159222058    2.6697114214
C       -0.1954281897    3.6955948558    0.7351147779
C        0.3219852256    2.3810361260    1.3234260734
N       -3.9464199125   -1.3126144241    2.0256557225
O       -5.6274556102   -2.4655034200    4.2472446862
O       -6.8420340178   -0.5878440552    4.0476245688
H        0.0449142817   -0.0167166035    0.0373404102
H       -1.7700142415   -1.6882217023    0.2630741727
H       -1.9492943391    2.5035395955    2.9328693388
H       -4.3779917577    1.2623831492    4.0575410322
H        0.3225832075    3.0461125409    3.3997645093
H        1.8578296318    3.3026626070    2.5458076198
H        1.3969734927    1.6694687325    3.0651542691
H       -0.9382221445    4.1539967805    1.3949496415
H       -0.6586487396    3.5121058030   -0.2395688249
H        0.6311757880    4.3995281586    0.5972934550
H        1.0703292446    1.9774891760    0.6330344306
H       -4.1046329872   -2.2653902536    1.7072858667
H       -7.4136972265   -1.1505933595    4.5937298689
28   

C       -0.7924492242    0.1996905134    0.6973648307
C       -1.8177391029   -0.7477243585    0.8197201722
C       -1.8785586833    1.6040109807    2.3526248498
C       -4.0580945481    0.5560275521    3.3260618367
C       -2.8913448128    0.6469964301    2.4671595860
C       -0.8045538491    1.3878924223    1.4592097888
C       -2.8558540939   -0.5028244380    1.7101006178
C       -4.6915295561   -0.6365995712    3.0422404410
C       -5.7436563493   -1.3296083416    3.8250237614
C        1.0372396099    2.6067342038    2.6580270236
C       -0.1944848452    3.7076035386    0.7492328306
C        0.3264836926    2.3862001232    1.3187808029
N       -3.9477744606   -1.2979901502    2.0363842037
O       -5.5533278557   -2.3220947437    4.5044438432
O       -6.9423955143   -0.7040405831    3.8090648200
H        0.0218855400    0.0047499007    0.0090709123
H       -1.7966842771   -1.6618368104    0.2400276589
H       -1.9206950453    2.4978148234    2.9625477579
H       -4.3401906338    1.2555130399    4.1032697472
H        0.3561916795    3.0325504732    3.4008548440
H        1.8809920372    3.2919284517    2.5293287678
H        1.4216163164    1.6555586265    3.0399350829
H       -0.9275806621    4.1618624506    1.4226470336
H       -0.6705507895    3.5344561791   -0.2211493465
H        0.6323204492    4.4105070014    0.6074224395
H        1.0646376067    1.9867933293    0.6151360419
H       -4.1201003699   -2.2397434359    1.6949760830
H       -7.5125949067   -1.2341372847    4.3882195619
28   

C       -0.7411680713    0.1694216897    0.8093403868
C       -1.7432531766   -0.7938304666    0.9849009107
C       -1.7923086754    1.5820758187    2.4806375378
C       -3.9463953113    0.5322985146    3.5148979507
C       -2.7844264888    0.6106764709    2.6463150295
C       -0.7481221355    1.3701340053    1.5511603443
C       -2.7531743662   -0.5514541775    1.9075686026
C       -4.5678453863   -0.6674623433    3.2654296198
C       -5.7607136132   -1.2733499419    3.9280683613
C        1.1325655685    2.6252243456    2.6391469173
C       -0.2263251684    3.7031378520    0.8045413924
C        0.3511721837    2.3915858838    1.3429295291
N       -3.8347964823   -1.3466327681    2.2639370250
O       -5.7207123935   -2.0011817551    4.8993623941
O       -6.9343134583   -0.9425050155    3.3436383748
H        0.0483714495   -0.0205817850    0.0914035241
H       -1.7304721621   -1.7140330850    0.4146868318
H       -1.8322972325    2.4887506910    3.0714217249
H       -4.2576630021    1.2716570571    4.2424063493
H        0.4852941759    3.0344880049    3.4205333506
H        1.9528203771    3.3284057046    2.4641695099
H        1.5579401092    1.6815911999    2.9954259446
H       -0.9254958088    4.1466835233    1.5197961196
H       -0.7562404086    3.5205233127   -0.1357568030
H        0.5781652982    4.4200863559    0.6131865965
H        1.0544656973    2.0064400532    0.5968926164
H       -4.0461476519   -2.2673974407    1.8900315228
H       -7.6149499703   -1.3891990768    3.8714603943
28   

C       -0.7077113288    0.0976860884    0.9168544295
C       -1.6941350255   -0.8715055455    1.1424114658
C       -1.7276298825    1.5381676314    2.5834953879
C       -3.8724605688    0.5156319156    3.6605215502
C       -2.7059360157    0.5621423184    2.7964755559
C       -0.7073810161    1.3154515568    1.6304654309
C       -2.6816502883   -0.6175821463    2.0860541670
C       -4.4942707223   -0.6959417128    3.4531348401
C       -5.8127149268   -1.1594621454    3.9537379226
C        1.2094268397    2.5938733704    2.6139520907
C       -0.2483636413    3.6536778948    0.8461077504
C        0.3670808123    2.3485674329    1.3594644825
N       -3.7639886106   -1.4006814390    2.4668348314
O       -6.0629183745   -1.5071615922    5.0908484677
O       -6.7358769398   -1.2795935777    2.9712503700
H        0.0608922516   -0.0988171710    0.1782569085
H       -1.6917720043   -1.8012960215    0.5878342243
H       -1.7659534459    2.4613100215    3.1483513008
H       -4.2176585318    1.3035639681    4.3186288735
H        0.5961963732    2.9963476520    3.4258101418
H        2.0115768381    3.3062136017    2.3972608353
H        1.6627147556    1.6556873515    2.9495416495
H       -0.9117718931    4.0970010502    1.5947197749
H       -0.8256276799    3.4631450373   -0.0642752747
H        0.5395750367    4.3755065834    0.6093943078
H        1.0347754983    1.9675086692    0.5794062530
H       -4.0297761689   -2.2921972069    2.0582753043
H       -7.5330920927   -1.6095815519    3.4153990221
28   

C       -0.7012152792    0.1227925338    0.9349704791
C       -1.6942496472   -0.8341760214    1.1836400465
C       -1.6874803556    1.5928899757    2.5957374576
C       -3.8328451403    0.6090382497    3.7041335985
C       -2.6728010574    0.6293493829    2.8310250818
C       -0.6804821606    1.3488283890    1.6341202824
C       -2.6682027582   -0.5596929422    2.1356594973
C       -4.4701540256   -0.6024412540    3.5213735214
C       -5.7970469325   -1.0163893167    4.0153400257
C        1.2706762697    2.6044798052    2.5746265241
C       -0.2087529682    3.6815832415    0.8357014467
C        0.3999494682    2.3687811103    1.3379319438
N       -3.7561595608   -1.3254591597    2.5362071705
O       -6.1430820753   -1.0740225870    5.1799780831
O       -6.6014609778   -1.4836319612    3.0300968569
H        0.0565038690   -0.0897030075    0.1895944399
H       -1.7078325800   -1.7702154147    0.6398363683
H       -1.7108502801    2.5231425377    3.1496673899
H       -4.1687993543    1.4126287033    4.3482139335
H        0.6785707363    3.0139173674    3.3986379319
H        2.0764702188    3.3074084731    2.3413753996
H        1.7197091242    1.6610945945    2.9012446385
H       -0.8491708924    4.1357346838    1.5976983802
H       -0.8083913095    3.4977574352   -0.0614857918
H        0.5837304120    4.3920631742    0.5805121966
H        1.0462140712    1.9784730531    0.5445236883
H       -4.0544166125   -2.2070541676    2.1275535586
H       -7.4179598986   -1.7506048383    3.4820359751
28   

C       -0.7174383507    0.1443334044    0.9051748791
C       -1.7206887313   -0.8050222184    1.1420981000
C       -1.6881041857    1.6046358001    2.5836770319
C       -3.8410039543    0.6292100642    3.6840221314
C       -2.6834540780    0.6488007312    2.8074437280
C       -0.6837482585    1.3615650844    1.6191285406
C       -2.6917802484   -0.5319429532    2.0974205377
C       -4.4920259588   -0.5742330348    3.4858596909
C       -5.8049862226   -0.9857437453    3.9977311689
C        1.2764669131    2.5904071034    2.5778259544
C       -0.1866420586    3.6958468240    0.8429698441
C        0.4079504383    2.3732265629    1.3360863005
N       -3.7866667644   -1.2916955553    2.4908466178
O       -6.2134288495   -0.8290928908    5.1335999578
O       -6.5206899006   -1.7042248366    3.0971709337
H        0.0383258677   -0.0672884079    0.1575762506
H       -1.7438745237   -1.7344957941    0.5874578366
H       -1.7013478381    2.5280199509    3.1493438663
H       -4.1648287334    1.4243815798    4.3448070357
H        0.6856049667    2.9992209900    3.4030333868
H        2.0899750439    3.2872005090    2.3530747003
H        1.7150403897    1.6400948883    2.8985058503
H       -0.8260039780    4.1490266040    1.6064521075
H       -0.7843745975    3.5253089289   -0.0581030681
H        0.6132865090    4.4012498510    0.5971130061
H        1.0534645389    1.9834433719    0.5418169372
H       -4.0972197466   -2.1678054787    2.0785037455
H       -7.3393588263   -1.9384810681    3.5635216360
28   

C       -0.7395886644    0.1694991867    0.8639729518
C       -1.7551106998   -0.7718461661    1.0795660768
C       -1.7068040339    1.6165280436    2.5560192509
C       -3.8732862278    0.6455670734    3.6338154792
C       -2.7142205302    0.6687292737    2.7588715306
C       -0.6977635931    1.3758679623    1.5957398594
C       -2.7303730979   -0.5016681166    2.0314030363
C       -4.5359977470   -0.5478606947    3.4122954464
C       -5.8264074028   -0.9786581975    3.9521444807
C        1.2663654573    2.5701640108    2.5907701355
C       -0.1656292690    3.7130850238    0.8542349475
C        0.4087206213    2.3779870605    1.3372789735
N       -3.8330665636   -1.2574203947    2.4104204499
O       -6.2991767223   -0.6495571103    5.0249264598
O       -6.4508336819   -1.8950858686    3.1698427725
H        0.0200275624   -0.0402704140    0.1197673700
H       -1.7836066601   -1.6936370345    0.5124858808
H       -1.7132265216    2.5311034009    3.1359566191
H       -4.1856330672    1.4268883064    4.3164862794
H        0.6716355508    2.9761576203    3.4145843349
H        2.0902886162    3.2599711701    2.3830250903
H        1.6904636723    1.6110644782    2.9046978187
H       -0.8083581813    4.1637937102    1.6163633237
H       -0.7552729185    3.5602768903   -0.0553042554
H        0.6447273790    4.4124327955    0.6258811854
H        1.0583944218    1.9904522859    0.5453066636
H       -4.1421321976   -2.1362773875    2.0019915538
H       -7.2678865303   -2.1103126487    3.6483104547
28   

C       -0.7420791857    0.2160902148    0.8123391686
C       -1.7692252207   -0.7164583708    1.0103594770
C       -1.6910238035    1.6428960200    2.5317679240
C       -3.8616785239    0.6727133667    3.6019861071
C       -2.7095834561    0.7036439465    2.7177972897
C       -0.6853602863    1.4079601918    1.5665434506
C       -2.7409744141   -0.4522219956    1.9674079471
C       -4.5400916984   -0.5068694271    3.3555514157
C       -5.7976079818   -0.9650496595    3.9413779777
C        1.2834771741    2.5726995449    2.5908660055
C       -0.1223190828    3.7445670957    0.8522125888
C        0.4347315307    2.3998912769    1.3282978270
N       -3.8488984759   -1.2046157957    2.3377686922
O       -6.3343521811   -0.5044209199    4.9328328499
O       -6.3302227011   -2.0331791951    3.2945577958
H        0.0153920825    0.0105059532    0.0647900626
H       -1.8083573032   -1.6277174822    0.4271183322
H       -1.6851708881    2.5456849650    3.1299077161
H       -4.1532970706    1.4344777534    4.3153752215
H        0.6865807425    2.9793609122    3.4127530745
H        2.1168598957    3.2547517577    2.3955839927
H        1.6941173027    1.6065610449    2.9010648415
H       -0.7685559514    4.1936624021    1.6123631899
H       -0.7044395801    3.6055470458   -0.0643620962
H        0.6965989152    4.4384664112    0.6382858411
H        1.0876882059    2.0125526589    0.5389365384
H       -4.1543420118   -2.0883672108    1.9367608924
H       -7.1410267182   -2.2388900550    3.7877509150
28   

C       -0.7819189149    0.2344674085    0.7772705823
C       -1.8239800249   -0.6845616072    0.9601149066
C       -1.7179912299    1.6568753944    2.5073608463
C       -3.9008748495    0.7017331899    3.5659915564
C       -2.7512416703    0.7309734924    2.6785080615
C       -0.7109335312    1.4170241484    1.5448251237
C       -2.7965061034   -0.4160179846    1.9151797482
C       -4.5963085683   -0.4641253137    3.3025064698
C       -5.8215452716   -0.9477713425    3.9326791651
C        1.2683500672    2.5402064436    2.5962841238
C       -0.1047016158    3.7504413430    0.8577559473
C        0.4270734040    2.3927631427    1.3253661173
N       -3.9126725342   -1.1597564892    2.2783027366
O       -6.4421167964   -0.3834280649    4.8158495214
O       -6.2440792533   -2.1388348642    3.4365061727
H       -0.0231854981    0.0249657927    0.0320937600
H       -1.8728185624   -1.5897168972    0.3681664692
H       -1.7004001527    2.5519053862    3.1168279724
H       -4.1728553418    1.4494344305    4.3017116212
H        0.6716410100    2.9489503280    3.4172685922
H        2.1141395371    3.2104902014    2.4139891336
H        1.6609888401    1.5648011142    2.9007557202
H       -0.7502605784    4.2022144167    1.6169038405
H       -0.6811954889    3.6292561241   -0.0648790997
H        0.7267778286    4.4333422516    0.6573574171
H        1.0802637173    2.0023520252    0.5377151193
H       -4.2107454250   -2.0525587338    1.8918957749
H       -7.0526756119   -2.3389847197    3.9356198027
28   

C       -0.7998923433    0.2667881804    0.7394818370
C       -1.8515646096   -0.6442264677    0.9065921929
C       -1.7287424868    1.6759755104    2.4842263343
C       -3.9174267811    0.7216335631    3.5317246204
C       -2.7714186344    0.7578967711    2.6398620700
C       -0.7201230041    1.4384333221    1.5227314088
C       -2.8250300434   -0.3784711416    1.8614735016
C       -4.6235517380   -0.4336223820    3.2503700097
C       -5.8116275527   -0.9527619262    3.9237487212
C        1.2640609873    2.5280303253    2.6013014171
C       -0.0832941409    3.7719775410    0.8664580485
C        0.4303559651    2.4036860888    1.3227827618
N       -3.9446182513   -1.1206189930    2.2171394515
O       -6.5321557814   -0.3307616817    4.6834922571
O       -6.1000503234   -2.2352934092    3.5848074945
H       -0.0397325499    0.0588343088   -0.0046750951
H       -1.9059078081   -1.5421390729    0.3041849426
H       -1.7035111537    2.5617598475    3.1067877183
H       -4.1727215209    1.4515171314    4.2908984896
H        0.6662505769    2.9348484251    3.4224321256
H        2.1186611996    3.1905748231    2.4322415306
H        1.6435665330    1.5451005715    2.8981565638
H       -0.7297781961    4.2220098637    1.6258591835
H       -0.6540778471    3.6670927267   -0.0617009018
H        0.7569138647    4.4480655246    0.6798778891
H        1.0851321140    2.0147144963    0.5357349851
H       -4.2291647711   -2.0227231584    1.8424916029
H       -6.9058496981   -2.4453910375    4.0843131964
28   

C       -0.8619389769    0.2767146710    0.7098788934
C       -1.9266221206   -0.6214791870    0.8634809053
C       -1.7673978472    1.6695348153    2.4797984550
C       -3.9605413343    0.7219725115    3.5239744369
C       -2.8225972546    0.7636767265    2.6223974798
C       -0.7639718010    1.4338048902    1.5124388950
C       -2.8946271364   -0.3576721049    1.8244689612
C       -4.6860709524   -0.4163111872    3.2232415021
C       -5.8386814728   -0.9680592267    3.9368512601
C        1.2285566237    2.4894703582    2.6130005205
C       -0.0916992935    3.7617595072    0.8778820485
C        0.4014411127    2.3842001273    1.3282812257
N       -4.0203057007   -1.0932481218    2.1745025418
O       -6.6632245739   -0.3301812168    4.5660720401
O       -5.9831593964   -2.3057810927    3.7597341476
H       -0.1055011330    0.0697360081   -0.0383347546
H       -1.9941350261   -1.5090218224    0.2472013817
H       -1.7274585131    2.5434139010    3.1182000155
H       -4.1911320643    1.4315281845    4.3097362026
H        0.6316343139    2.9001034294    3.4328424187
H        2.0933321439    3.1410370146    2.4532038454
H        1.5925871717    1.4997146910    2.9065242789
H       -0.7389178898    4.2137537198    1.6355200751
H       -0.6563441625    3.6703590959   -0.0554479006
H        0.7580836286    4.4288833553    0.7027940828
H        1.0566043142    1.9918202194    0.5432470666
H       -4.2980514586   -1.9995980586    1.8055683468
H       -6.7854474239   -2.5339687089    4.2568192536
28   

C       -0.8970403374    0.3017233954    0.6789242067
C       -1.9769295967   -0.5803636628    0.8192131102
C       -1.7868929674    1.6911117316    2.4593196385
C       -3.9938153491    0.7631082391    3.4915516086
C       -2.8570871323    0.8009685449    2.5887158847
C       -0.7833769821    1.4487704678    1.4937134282
C       -2.9443860521   -0.3104656018    1.7791165040
C       -4.7373286877   -0.3591525146    3.1767644894
C       -5.8680229722   -0.9306431795    3.9184847065
C        1.2194954705    2.4616658842    2.6167137610
C       -0.0673994738    3.7695018801    0.8829672406
C        0.3994676399    2.3804318626    1.3255940609
N       -4.0797979830   -1.0346440524    2.1214451063
O       -6.8039965676   -0.3109462785    4.3891141453
O       -5.8572670979   -2.2867768386    3.9340252729
H       -0.1405521618    0.0894594048   -0.0677596115
H       -2.0555977493   -1.4611451764    0.1946174033
H       -1.7344436270    2.5568419033    3.1078199588
H       -4.2054471961    1.4598098782    4.2938082372
H        0.6242480511    2.8762345319    3.4357819604
H        2.0963369573    3.0995504323    2.4677938229
H        1.5646547912    1.4636419550    2.9050060915
H       -0.7125645105    4.2259462801    1.6396942049
H       -0.6267240995    3.6949176447   -0.0550462791
H        0.7945794020    4.4237616076    0.7193637193
H        1.0534490377    1.9831810411    0.5420231225
H       -4.3537347786   -1.9428972574    1.7552850440
H       -6.6610786919   -2.5340704947    4.4191134631
28   

C       -0.9240915645    0.3181108288    0.6541978989
C       -2.0126047140   -0.5550635503    0.7824447484
C       -1.8019578708    1.6930382079    2.4516905051
C       -4.0162755048    0.7696781885    3.4731167595
C       -2.8807339941    0.8115148100    2.5691082635
C       -0.8000397870    1.4534545850    1.4836614705
C       -2.9780542304   -0.2880617693    1.7451925533
C       -4.7699200906   -0.3396920674    3.1436219910
C       -5.8940696780   -0.9315941741    3.8932503350
C        1.2084957539    2.4375447307    2.6234822696
C       -0.0601233699    3.7720606579    0.8965206928
C        0.3924140927    2.3750954678    1.3287554134
N       -4.1191196094   -1.0072242699    2.0787491969
O       -6.9383429236   -0.3764327842    4.1773857444
O       -5.7243581611   -2.2537804652    4.1364032989
H       -0.1688984089    0.1078465727   -0.0943676636
H       -2.0988852456   -1.4272881220    0.1469475525
H       -1.7412668818    2.5495025863    3.1116446572
H       -4.2159450675    1.4536393094    4.2890772936
H        0.6144660804    2.8510255102    3.4439635999
H        2.0919604069    3.0681731183    2.4830141132
H        1.5430579181    1.4338684690    2.9045602870
H       -0.7045197213    4.2273604216    1.6545965017
H       -0.6161072469    3.7106691172   -0.0444356753
H        0.8083090334    4.4200238612    0.7422888637
H        1.0457440268    1.9785824448    0.5442603594
H       -4.3936499194   -1.9096348222    1.6999971365
H       -6.5335557117   -2.5271735946    4.5975426685
28   

C       -0.9261697569    0.2892952315    0.6417050821
C       -2.0010500582   -0.6022569219    0.7557494718
C       -1.8375135979    1.6345594847    2.4452105454
C       -4.0482813151    0.6699306682    3.4391282235
C       -2.9032368363    0.7352598981    2.5479905795
C       -0.8255341481    1.4190617182    1.4817606635
C       -2.9764326029   -0.3589419603    1.7146817910
C       -4.7772240244   -0.4476294908    3.0966810807
C       -5.9288305161   -1.0575531594    3.8076997447
C        1.1702466273    2.4086348550    2.6353873498
C       -0.1198663731    3.7603873552    0.9377454801
C        0.3524825628    2.3612865123    1.3413080079
N       -4.1094420849   -1.0975565948    2.0315901588
O       -7.0651516508   -0.6275459136    3.8273465415
O       -5.6279678013   -2.2519407266    4.3688249282
H       -0.1633113608    0.0978036124   -0.1041295855
H       -2.0695362307   -1.4698927315    0.1118631281
H       -1.7947756591    2.4865857658    3.1122543178
H       -4.2703925423    1.3498648813    4.2524300533
H        0.5713527638    2.7953926336    3.4653332196
H        2.0439364840    3.0551965931    2.5067746679
H        1.5202649538    1.4042971002    2.8944752709
H       -0.7672598449    4.1928700710    1.7065050382
H       -0.6782143063    3.7100027891   -0.0024632385
H        0.7395892427    4.4224292652    0.7932988466
H        1.0092393648    1.9897873665    0.5474744267
H       -4.3760866487   -1.9883359531    1.6219841379
H       -6.4564285815   -2.5544927367    4.7735805553
28   

C       -0.8215590286    0.2398103992    0.7083009512
C       -1.8621647307   -0.6896238765    0.8353530534
C       -1.7635252310    1.5567752134    2.5171753811
C       -3.9601724292    0.5444208695    3.4978403269
C       -2.7969323964    0.6216222257    2.6308539610
C       -0.7539229745    1.3751171429    1.5440994073
C       -2.8368890661   -0.4780691812    1.8023896529
C       -4.6512399243   -0.5942563146    3.1606607866
C       -5.9479945077   -1.1089150896    3.6923408626
C        1.2362255378    2.4195285635    2.6491716730
C       -0.1534834151    3.7537550019    1.0173602439
C        0.3809525457    2.3653288856    1.3806663405
N       -3.9576051646   -1.2389128544    2.1095144200
O       -7.0409112536   -0.8423953158    3.2349022983
O       -5.8117560000   -1.9276447863    4.7598023933
H       -0.0623512918    0.0763738141   -0.0478732759
H       -1.9097126589   -1.5569238107    0.1891253019
H       -1.7495012433    2.4160933678    3.1760077335
H       -4.2459855532    1.2614926548    4.2573967985
H        0.6480017517    2.7657850338    3.5043093880
H        2.0800290187    3.1019609471    2.5073319184
H        1.6319968006    1.4245080655    2.8763677373
H       -0.7882507850    4.1520841496    1.8144966354
H       -0.7414981201    3.6994481202    0.0956165571
H        0.6772133237    4.4477634273    0.8555137241
H        1.0244581445    2.0325942386    0.5592539101
H       -4.2435217833   -2.0942664224    1.6416424918
H       -6.7167868566   -2.1773597522    5.0046683019
28   

C       -0.7424906337    0.1556404912    0.7607312386
C       -1.7442961601   -0.8123688167    0.9128123813
C       -1.6909324364    1.4393415749    2.5894480977
C       -3.8513081735    0.3746548659    3.5871694686
C       -2.6868201378    0.4675108692    2.7254041814
C       -0.6984979382    1.2947019714    1.5931863633
C       -2.7048897186   -0.6353951008    1.9009299426
C       -4.5177212593   -0.7890634660    3.2618941724
C       -5.8931500848   -1.1982705473    3.6370293352
C        1.2930018079    2.4020817440    2.6251578719
C       -0.2158826881    3.7064030946    1.0777189497
C        0.3862671554    2.3335996267    1.3942869936
N       -3.8071920480   -1.4214126147    2.2142116563
O       -6.8444208643   -1.1888765178    2.8768579809
O       -6.0397248708   -1.4960247168    4.9479158905
H        0.0019344654    0.0219695584   -0.0157060203
H       -1.7782006448   -1.6783186498    0.2639135823
H       -1.6988594740    2.3031957801    3.2424104801
H       -4.1834316417    1.1181304189    4.3012061567
H        0.7280730524    2.7088491185    3.5106049343
H        2.1013286899    3.1211839118    2.4599603337
H        1.7380871015    1.4204815260    2.8165224510
H       -0.8266952582    4.0706635412    1.9090801171
H       -0.8437101623    3.6435166215    0.1831731448
H        0.5802129207    4.4334042412    0.8888441752
H        1.0045849854    2.0392739723    0.5395540472
H       -4.1126580373   -2.2463687378    1.7050035609
H       -6.9821222374   -1.6994349849    5.0577409300
28   

C       -0.7566261768    0.1626275753    0.7412516310
C       -1.7567572459   -0.8076928372    0.8895766175
C       -1.6843380481    1.4178717106    2.6001437141
C       -3.8344114143    0.3388104427    3.6042226102
C       -2.6785869969    0.4438925047    2.7323120182
C       -0.7034102313    1.2888995536    1.5904377460
C       -2.7061220648   -0.6460890393    1.8910207038
C       -4.5059452877   -0.8219427994    3.2684075845
C       -5.8724523689   -1.2385256555    3.6315096434
C        1.2969148452    2.3858451748    2.6172724411
C       -0.2290474632    3.7073212866    1.1014518050
C        0.3782495690    2.3315780753    1.3945700729
N       -3.8061760437   -1.4357280568    2.2029325344
O       -6.7562650720   -1.4747885331    2.8241463212
O       -6.1174526195   -1.2236512254    4.9617874058
H       -0.0211119452    0.0410656948   -0.0455924653
H       -1.7983899469   -1.6634667121    0.2277255642
H       -1.6852161356    2.2718081823    3.2660826039
H       -4.1608640867    1.0719229318    4.3316207463
H        0.7403982051    2.6808180301    3.5120000007
H        2.1026914661    3.1080473300    2.4531412354
H        1.7450452919    1.4025243806    2.7919404636
H       -0.8324525371    4.0597703489    1.9432577862
H       -0.8653745838    3.6548556568    0.2122504159
H        0.5640257328    4.4380538640    0.9142809794
H        0.9885994172    2.0490899690    0.5301725556
H       -4.1289504654   -2.2441075002    1.6770885488
H       -7.0526926356   -1.4673016635    5.0494069116
28   

C       -0.7787005192    0.1983144572    0.7085972705
C       -1.7840985778   -0.7677709072    0.8478463513
C       -1.6865203913    1.4296755292    2.5933046530
C       -3.8314042601    0.3422325033    3.6013901004
C       -2.6858654535    0.4597710718    2.7169442448
C       -0.7128327709    1.3104544385    1.5753293363
C       -2.7256742351   -0.6162692462    1.8580535839
C       -4.5104849702   -0.8114995654    3.2529426883
C       -5.8466392577   -1.2737979431    3.6447136256
C        1.2976307929    2.3808675139    2.6118711588
C       -0.2233451490    3.7307438568    1.1160361405
C        0.3758254429    2.3477962184    1.3906378530
N       -3.8249461171   -1.4071188677    2.1686687453
O       -6.6656075215   -1.7429806067    2.8685574269
O       -6.1565010497   -1.0377229998    4.9406433685
H       -0.0483758648    0.0839933553   -0.0841435707
H       -1.8347171174   -1.6135965745    0.1739143928
H       -1.6765964272    2.2720535215    3.2737440236
H       -4.1418833764    1.0570437466    4.3537222806
H        0.7454053702    2.6689324012    3.5114835081
H        2.1080466251    3.0993957585    2.4545740245
H        1.7393777042    1.3924569615    2.7736367495
H       -0.8231931128    4.0759621611    1.9633738862
H       -0.8615413695    3.6933039644    0.2274159123
H        0.5739037202    4.4588656729    0.9366546726
H        0.9825819608    2.0719966729    0.5215620006
H       -4.1561623209   -2.2113754420    1.6407998975
H       -7.0692828278   -1.3510773873    5.0430644521
28   

C       -0.8184373422    0.2265122211    0.6723563724
C       -1.8325658248   -0.7313241919    0.8042073217
C       -1.7037343840    1.4413394615    2.5785768107
C       -3.8450890314    0.3524985424    3.5947048168
C       -2.7115729538    0.4793897300    2.6954770108
C       -0.7366107372    1.3259146095    1.5538383283
C       -2.7665998623   -0.5844246834    1.8219462221
C       -4.5345213537   -0.7925578969    3.2365307664
C       -5.8312240936   -1.3082785185    3.6743937770
C        1.2861471297    2.3634688564    2.6016170073
C       -0.2198884706    3.7438981605    1.1184508303
C        0.3641654380    2.3521889358    1.3799058463
N       -3.8657497360   -1.3741350379    2.1348801582
O       -6.5694137211   -1.9889497970    2.9756171731
O       -6.2038993604   -0.9030306780    4.9109383928
H       -0.0927223403    0.1147755221   -0.1249714537
H       -1.8940434451   -1.5688698735    0.1208807837
H       -1.6801002142    2.2730024944    3.2717480461
H       -4.1332500457    1.0475740872    4.3740419742
H        0.7374287696    2.6498753957    3.5038885813
H        2.1048907370    3.0739248846    2.4508857930
H        1.7164698889    1.3686191177    2.7545343161
H       -0.8169066974    4.0867893853    1.9687401344
H       -0.8576566455    3.7217883622    0.2290165894
H        0.5852254681    4.4651940696    0.9468592216
H        0.9682896983    2.0778190625    0.5085460399
H       -4.1988643949   -2.1840354630    1.6161205788
H       -7.0825677359   -1.2912760025    5.0493481730
28   

C       -0.8905173564    0.2297262058    0.6212437737
C       -1.9184358420   -0.7138640078    0.7479524933
C       -1.7421965992    1.4320174777    2.5507844556
C       -3.8808115058    0.3506523709    3.5824137867
C       -2.7633492853    0.4836716774    2.6635244661
C       -0.7846920637    1.3153550617    1.5170997292
C       -2.8417676231   -0.5667589502    1.7752747901
C       -4.5873763992   -0.7815025797    3.2157750104
C       -5.8371037687   -1.3473621823    3.7156515751
C        1.2533008368    2.3147717703    2.5759863577
C       -0.2276539340    3.7248980206    1.0953274604
C        0.3340276581    2.3234224884    1.3518969624
N       -3.9429280194   -1.3509989857    2.0940182478
O       -6.4818163694   -2.2064048139    3.1287967693
O       -6.2676427033   -0.8131859325    4.8827283826
H       -0.1716335678    0.1165389636   -0.1820448806
H       -1.9966409549   -1.5426141243    0.0556564907
H       -1.6983581766    2.2520400448    3.2567310153
H       -4.1369789277    1.0230473678    4.3922993759
H        0.7079214597    2.6075492272    3.4782106934
H        2.0843182500    3.0117622280    2.4295630252
H        1.6664997385    1.3123138691    2.7264883606
H       -0.8229436881    4.0719156319    1.9451831611
H       -0.8622580440    3.7166862983    0.2033996591
H        0.5889260590    4.4347589007    0.9304553471
H        0.9362980251    2.0430928819    0.4811503354
H       -4.2754982364   -2.1710899366    1.5906555291
H       -7.1020923721   -1.2696088149    5.0760638596
28   

C       -0.9242932302    0.2957582431    0.5687720315
C       -1.9642944235   -0.6367228091    0.6774137562
C       -1.7570461026    1.4679602628    2.5249661081
C       -3.8931746733    0.3776671001    3.5531632264
C       -2.7894539569    0.5299481786    2.6205560169
C       -0.8026199530    1.3604722018    1.4874122966
C       -2.8834629956   -0.4997325646    1.7098166715
C       -4.6110752842   -0.7411827637    3.1681267914
C       -5.8023309394   -1.3745190379    3.7238753191
C        1.2434426842    2.3144857348    2.5756838316
C       -0.2071456098    3.7656555924    1.1045742274
C        0.3328223042    2.3532159112    1.3453719215
N       -3.9849682948   -1.2852699055    2.0236610725
O       -6.3227331952   -2.3789757096    3.2558742072
O       -6.3065814547   -0.7606194103    4.8201237385
H       -0.2068590835    0.1887984896   -0.2366621880
H       -2.0524004202   -1.4517107912   -0.0298749475
H       -1.6990285423    2.2699966007    3.2502931668
H       -4.1200582364    1.0162646296    4.3983797234
H        0.6968259207    2.6040334303    3.4781794998
H        2.0859933562    3.0005048378    2.4440084910
H        1.6404548183    1.3040209380    2.7159411986
H       -0.8047047649    4.1081927408    1.9546784679
H       -0.8345247562    3.7787592424    0.2076176837
H        0.6204678719    4.4663489791    0.9564561828
H        0.9375665341    2.0760017644    0.4753430400
H       -4.3057149687   -2.1159710301    1.5299007201
H       -7.0822949032   -1.2878579964    5.0697373447
