39   

C        2.6417860027   -0.4562582406    1.0328611398
C        1.3825838701   -0.9361895397    1.4563432480
C        2.7322520004    0.5508209802    0.0502092547
C       -0.1239107836    2.1209022427   -1.6105897712
C        0.3545800762    0.5725203695   -0.0683339275
C        0.2031086888   -0.4070424673    0.8997128782
C       -0.7131915463    1.2232963101   -0.7532442521
C        1.5572307389    1.0616970818   -0.5000669439
C       -1.3298552714   -2.2499502124    1.7645543328
C       -2.3825657787   -2.8596931459    2.3936589796
C       -2.1413682839    0.8345688746   -0.4651046573
C       -1.2119868786   -0.8221075639    1.2718450525
C       -2.1816050511   -0.6233762405    0.0662268816
C       -2.6021736198   -2.9116194169    3.8950822029
C       -2.8565729187   -1.9022101838   -1.9898199697
C       -3.0475673960   -3.9765745368    1.6248071878
N        1.2818413101    2.0365547202   -1.4661666022
N       -1.8091095056   -1.5524963955   -1.0220175007
O       -4.3723417116   -3.5794278966    1.2672857122
H        3.5463668172   -0.8631868722    1.4697674919
H        1.3288073060   -1.7050046571    2.2177404391
H        3.6952035167    0.9242462566   -0.2738097259
H       -0.6638960876    2.7768446994   -2.2863165214
H       -0.7463995697   -2.9008752666    1.1222725555
H       -2.5422068746    1.5087308226    0.2974599856
H       -2.7576617714    0.9343919180   -1.3626831188
H       -1.5400972892   -0.1629236014    2.0810665902
H       -3.2006626978   -0.8560482462    0.3933207646
H       -3.5709277394   -2.4677492500    4.1426356840
H       -2.5826596155   -3.9434580825    4.2580508412
H       -1.8182268816   -2.3488942396    4.4106574747
H       -3.7248228192   -2.3188097122   -1.4688060547
H       -3.1721110967   -1.0212767664   -2.5566533107
H       -2.4800296182   -2.6533269961   -2.6909112376
H       -2.4785380096   -4.2205571296    0.7217005531
H       -3.0961683272   -4.8806943231    2.2400882552
H        1.9792728083    2.5820779240   -1.9631497927
H       -0.9284889032   -1.2606834207   -1.4471377264
H       -4.7983114505   -4.2606298272    0.7183830702
39   

C        2.6484615149   -0.5607623991    1.0506966790
C        1.3859103491   -1.0625993929    1.4379080542
C        2.7476855983    0.4815447137    0.1061672004
C       -0.0930361551    2.0904460321   -1.5440810117
C        0.3725279125    0.4932052061   -0.0484649146
C        0.2120583712   -0.5196251341    0.8831783805
C       -0.6887728410    1.1589858877   -0.7284265271
C        1.5781700353    1.0047729685   -0.4439848750
C       -1.3188092519   -2.3820165353    1.6981444026
C       -2.2990758035   -2.9050351691    2.4824359463
C       -2.1174510521    0.7475015358   -0.4790020801
C       -1.2067046550   -0.9519097501    1.2189354489
C       -2.1534432935   -0.7303316502   -0.0012689306
C       -2.4223235399   -2.6646791710    3.9762530122
C       -2.7183774528   -1.8588920925   -2.1815884776
C       -2.9428348784   -4.1756841687    1.9830738064
N        1.3107591280    2.0112909116   -1.3794894269
N       -1.7462905759   -1.6258490039   -1.1050870387
O       -4.3473464554   -4.1497589042    2.2491304436
H        3.5489718019   -0.9779545392    1.4863302297
H        1.3254444077   -1.8586135314    2.1703386807
H        3.7130455835    0.8719395600   -0.1895302007
H       -0.6271779268    2.7652524496   -2.2057867334
H       -0.8646603283   -3.0636401455    0.9865364857
H       -2.5363322450    1.3896576040    0.3013782632
H       -2.7208010997    0.8787439515   -1.3810268192
H       -1.5560156058   -0.3048930570    2.0293729139
H       -3.1768419196   -0.9828526827    0.2958686610
H       -3.3523859288   -2.1299426452    4.1898464643
H       -2.4292905165   -3.6132062252    4.5215273872
H       -1.5820824592   -2.0631759176    4.3356338710
H       -3.6661945616   -2.2145463701   -1.7648865550
H       -2.9007189354   -0.9399362509   -2.7466839252
H       -2.3349572795   -2.6182908161   -2.8699849425
H       -2.7757171494   -4.2940133052    0.9074095416
H       -2.4938877156   -5.0345826321    2.4924347878
H        2.0117046160    2.5793564308   -1.8453925173
H       -0.8209575544   -1.3587249089   -1.4437454952
H       -4.7774542166   -4.9562809275    1.9145846937
39   

C        2.5940782018   -0.6403862300    1.0622231326
C        1.3232278648   -1.1540489003    1.4044824170
C        2.7135028296    0.4419925499    0.1662119776
C       -0.0920537357    2.1304309250   -1.4648160380
C        0.3418308056    0.4689417630   -0.0307353901
C        0.1614503297   -0.5826343666    0.8533346200
C       -0.7049500607    1.1663950393   -0.7014915908
C        1.5557932698    0.9930106836   -0.3817112572
C       -1.3907018844   -2.4670903901    1.5668884032
C       -2.2811056935   -2.9539356378    2.4610008752
C       -2.1387306727    0.7477338179   -0.4982569559
C       -1.2645337578   -1.0226559948    1.1442841531
C       -2.1855804955   -0.7492813655   -0.0851503750
C       -2.3619495455   -2.5104929690    3.9082778400
C       -2.7095188427   -1.7793198141   -2.3238940061
C       -2.8777165349   -4.3072586403    2.1590022665
N        1.3081905307    2.0400185243   -1.2775019167
N       -1.7591557178   -1.5975370997   -1.2183787463
O       -4.2713887038   -4.3058633803    2.4781509724
H        3.4853743584   -1.0797246707    1.4949728373
H        1.2467352901   -1.9814803699    2.0996433312
H        3.6851668042    0.8413228505   -0.0948603027
H       -0.6122363927    2.8343904412   -2.1070021126
H       -1.0287494514   -3.1530460098    0.8082801598
H       -2.5721222100    1.3567511064    0.3005691943
H       -2.7240871590    0.9189336422   -1.4054169643
H       -1.6290722721   -0.4012251563    1.9678538004
H       -3.2149684848   -1.0116021924    0.1811898438
H       -3.2961295981   -1.9670131838    4.0772597247
H       -2.3327515547   -3.3744227797    4.5790287930
H       -1.5232695329   -1.8525261223    4.1548337688
H       -3.6671811859   -2.1482563317   -1.9427579241
H       -2.8767120255   -0.8360008842   -2.8523234490
H       -2.3147401116   -2.5100399058   -3.0364706091
H       -2.7447241349   -4.5613616986    1.1024092264
H       -2.3697790419   -5.0701076400    2.7578615934
H        2.0189870068    2.6253234270   -1.7055954390
H       -0.8258172038   -1.3206815486   -1.5258937745
H       -4.6756607243   -5.1665742067    2.2703245588
39   

C        2.5426240433   -0.7220396611    1.1336631400
C        1.2573064903   -1.2351438553    1.4180529051
C        2.6994841507    0.3890770846    0.2795400068
C       -0.0384576806    2.1564052822   -1.3824472251
C        0.3357192367    0.4447289848    0.0089323701
C        0.1183618010   -0.6344499048    0.8506225802
C       -0.6830983439    1.1727678617   -0.6721885156
C        1.5644450502    0.9692144760   -0.2853642289
C       -1.4668023473   -2.5245908052    1.4537128684
C       -2.2368302741   -3.0125051598    2.4468744369
C       -2.1253319689    0.7582190762   -0.5313810570
C       -1.3198745328   -1.0719563784    1.0790533934
C       -2.1946988810   -0.7522826448   -0.1731692351
C       -2.3073527933   -2.4247833821    3.8392619565
C       -2.6413327702   -1.6864434339   -2.4703885071
C       -2.7501086949   -4.4240628289    2.2927662575
N        1.3541522137    2.0477618198   -1.1528907395
N       -1.7355331254   -1.5641677549   -1.3200113611
O       -4.1157614384   -4.4935880616    2.7110733862
H        3.4161103027   -1.1845182771    1.5784220301
H        1.1519361801   -2.0855568927    2.0809670394
H        3.6822441442    0.7876649268    0.0625928762
H       -0.5320474041    2.8853240649   -2.0177549770
H       -1.1861154960   -3.2084753582    0.6597536388
H       -2.5810766878    1.3420456693    0.2738204642
H       -2.6793664252    0.9660399573   -1.4504457158
H       -1.7100140219   -0.4672414612    1.9029247163
H       -3.2343381043   -1.0157243417    0.0483930344
H       -3.2553542906   -1.8949011594    3.9701696150
H       -2.2410632204   -3.2142952022    4.5939032707
H       -1.4844760025   -1.7229958577    4.0046094358
H       -3.6227548352   -2.0446318036   -2.1432763496
H       -2.7640777635   -0.7223887776   -2.9729945379
H       -2.2326872171   -2.4021964741   -3.1902758008
H       -2.6710978176   -4.7533386848    1.2517104243
H       -2.1470476811   -5.0988852409    2.9086603668
H        2.0829901433    2.6404498618   -1.5383738061
H       -0.7859928381   -1.2920527168   -1.5784199570
H       -4.4689329116   -5.3934822140    2.5972628890
39   

C        2.4342752611   -0.8426298971    1.2750552182
C        1.1258471080   -1.3363130908    1.4762328061
C        2.6585021150    0.2868001528    0.4609823945
C        0.0497989311    2.1501298635   -1.3006879051
C        0.3143799645    0.3981463730    0.0656815044
C        0.0306929984   -0.6976588589    0.8654079760
C       -0.6511630894    1.1623431439   -0.6522864318
C        1.5670981858    0.9046158794   -0.1480475223
C       -1.6136030534   -2.5713239554    1.3361124561
C       -2.1711798346   -3.0643541869    2.4555106373
C       -2.1056453849    0.7712495207   -0.6037103794
C       -1.4258733744   -1.1143260144    1.0000419385
C       -2.2198419083   -0.7473154043   -0.2932494183
C       -2.1338312311   -2.3903931638    3.8073593357
C       -2.5485556403   -1.6001305576   -2.6415846181
C       -2.6256871738   -4.5048053166    2.4296941435
N        1.4252227706    2.0082932659   -0.9977064724
N       -1.7117480892   -1.5359481400   -1.4354032642
O       -3.8918628883   -4.6333659930    3.0824732856
H        3.2734305541   -1.3351198627    1.7524624282
H        0.9689869258   -2.2025303106    2.1077603598
H        3.6591253718    0.6699738541    0.3071043283
H       -0.3941621139    2.9034675471   -1.9440831702
H       -1.5014469461   -3.2489207235    0.4965175881
H       -2.5955658231    1.3410088598    0.1914749884
H       -2.6039796344    1.0151063416   -1.5454972711
H       -1.8561580692   -0.5175953391    1.8094226792
H       -3.2749048344   -0.9967039190   -0.1385680725
H       -3.0813070227   -1.8756645841    3.9917786435
H       -1.9773961254   -3.1283697560    4.5999788226
H       -1.3187878919   -1.6622628197    3.8563039027
H       -3.5576428177   -1.9384919562   -2.3850991599
H       -2.6140389715   -0.6194442681   -3.1222662512
H       -2.1163975084   -2.3072241134   -3.3562454494
H       -2.7122796151   -4.8648076165    1.3995382465
H       -1.8863951360   -5.1265638742    2.9445957357
H        2.1852998782    2.5950193757   -1.3280341716
H       -0.7418038594   -1.2811858178   -1.6276995655
H       -4.2044994866   -5.5548939789    3.0578709407
39   

C        2.2261055576   -0.8838345630    1.3125598220
C        0.9044659242   -1.3609385223    1.4582980679
C        2.4955683090    0.2559965898    0.5278555665
C       -0.0192104659    2.1837891478   -1.2984090886
C        0.1685207321    0.4092950678    0.0516684555
C       -0.1606767193   -0.6941239130    0.8232723569
C       -0.7579116282    1.1970792737   -0.6914850259
C        1.4356628666    0.8997548837   -0.1088641505
C       -1.8506844037   -2.5446924085    1.2229462401
C       -2.1322027259   -3.0578817331    2.4311177208
C       -2.2177035128    0.8245133822   -0.7064078597
C       -1.6292546273   -1.0894833980    0.8992217976
C       -2.3644500983   -0.6966358359   -0.4211829114
C       -1.9683770886   -2.3294844042    3.7428514317
C       -2.5934687928   -1.4988334753   -2.7999488311
C       -2.4945220408   -4.5235284278    2.5003172476
N        1.3415574470    2.0179133767   -0.9459118664
N       -1.8214535448   -1.4814205668   -1.5497100541
O       -3.5943087564   -4.7240080785    3.3930775023
H        3.0403932553   -1.3980332397    1.8097561851
H        0.7163124390   -2.2375956752    2.0660917583
H        3.5065872182    0.6262541550    0.4161002950
H       -0.4276211066    2.9518432623   -1.9478869219
H       -1.9232255214   -3.2092110786    0.3686996738
H       -2.7316336372    1.3906060663    0.0761419098
H       -2.6747652349    1.0878220806   -1.6637269074
H       -2.0833110201   -0.4922920390    1.6953452988
H       -3.4284519491   -0.9319104241   -0.3128526516
H       -2.9224562381   -1.8860661775    4.0425611862
H       -1.6442709934   -3.0212465967    4.5262786245
H       -1.2191376307   -1.5367958520    3.6633157954
H       -3.6275241461   -1.7996278316   -2.6031082260
H       -2.5939120660   -0.5109711391   -3.2703388069
H       -2.1507716885   -2.2141973452   -3.4997705777
H       -2.7639744539   -4.9016830726    1.5090426618
H       -1.6293272975   -5.0925323294    2.8549729129
H        2.1219697583    2.5976406927   -1.2390960604
H       -0.8353209748   -1.2539781797   -1.6863910653
H       -3.8462142796   -5.6635477461    3.4306102208
39   

C        2.1666337096   -0.9302255690    1.3308808967
C        0.8337880487   -1.3771370528    1.4683400797
C        2.4684484717    0.1937261347    0.5356629076
C        0.0152853702    2.1515998656   -1.3406994065
C        0.1497988988    0.3906942675    0.0333334062
C       -0.2114488039   -0.6958495179    0.8146182626
C       -0.7511520296    1.1887261138   -0.7297462130
C        1.4290094099    0.8517932909   -0.1196342352
C       -1.9442422094   -2.5047657551    1.2187223705
C       -2.0847103866   -3.0252741850    2.4480079235
C       -2.2182762626    0.8471843155   -0.7565576694
C       -1.6899643422   -1.0594451153    0.8787740914
C       -2.4011185458   -0.6670207776   -0.4549072382
C       -2.0129041052   -2.2471997726    3.7383104210
C       -2.6161518612   -1.4892572533   -2.8282610044
C       -2.3050769164   -4.5176097961    2.5531654056
N        1.3682566691    1.9610511976   -0.9712564420
N       -1.8621021056   -1.4774716005   -1.5670222353
O       -3.3462542006   -4.8087080631    3.4906680556
H        2.9644460494   -1.4558181218    1.8426950838
H        0.6235754570   -2.2424453111    2.0847322415
H        3.4883222461    0.5407669973    0.4300497145
H       -0.3692075330    2.9199090576   -2.0042860454
H       -2.0527213685   -3.1759060701    0.3735238761
H       -2.7283847257    1.4337315576    0.0133157543
H       -2.6589355322    1.1087404301   -1.7220039697
H       -2.1410656630   -0.4432944440    1.6618572879
H       -3.4711674386   -0.8779143594   -0.3565662838
H       -3.0055432182   -1.8687267425    3.9993519461
H       -1.6585709820   -2.8868695764    4.5523610891
H       -1.3224806740   -1.4035075112    3.6524662810
H       -3.6608345570   -1.7592496534   -2.6432586172
H       -2.5825564463   -0.5076100472   -3.3103402062
H       -2.1831193636   -2.2249276412   -3.5129079835
H       -2.5757802769   -4.9370821872    1.5790263455
H       -1.3765451021   -4.9966377953    2.8792250342
H        2.1643132331    2.5198333721   -1.2630643317
H       -0.8687295367   -1.2761781780   -1.6918986208
H       -3.5080777121   -5.7669997289    3.5461559309
39   

C        2.1522014689   -1.0043114405    1.3604053036
C        0.8113425893   -1.4225106879    1.5092531728
C        2.4724654076    0.1051522577    0.5523046870
C        0.0488945677    2.0980951312   -1.3254546271
C        0.1553697551    0.3448211980    0.0606037731
C       -0.2233511791   -0.7280791049    0.8522940985
C       -0.7336857226    1.1561123960   -0.7024123351
C        1.4428750536    0.7784988851   -0.1030432947
C       -1.9801523035   -2.5057105160    1.2663147242
C       -2.0703956355   -3.0376041043    2.4969322104
C       -2.2080788616    0.8461666313   -0.7154093627
C       -1.7077695713   -1.0651672915    0.9235937640
C       -2.4201977267   -0.6627225838   -0.4065213873
C       -2.2329525656   -2.2585620071    3.7783441956
C       -2.6765509293   -1.4905827441   -2.7730645691
C       -2.1058514388   -4.5467792875    2.6005167678
N        1.3999793550    1.8818563890   -0.9632705114
N       -1.9066939242   -1.4858387328   -1.5212976076
O       -3.1699800469   -4.9725132083    3.4578004782
H        2.9418685625   -1.5408425142    1.8735188576
H        0.5874587703   -2.2760730776    2.1369670417
H        3.4986421190    0.4300976473    0.4378071636
H       -0.3236785760    2.8698729576   -1.9917939635
H       -2.0292929988   -3.1833679665    0.4208458892
H       -2.6988459653    1.4462854629    0.0565770582
H       -2.6512189911    1.1136506470   -1.6780904885
H       -2.1435295087   -0.4403408876    1.7080491330
H       -3.4935175742   -0.8516066352   -0.2994880081
H       -3.2792936077   -1.9660781654    3.9059035246
H       -1.9316878386   -2.8632268023    4.6391788854
H       -1.6094026782   -1.3602053949    3.7695394976
H       -3.7228038656   -1.7440799137   -2.5740072655
H       -2.6344642777   -0.5111589560   -3.2589938156
H       -2.2634140811   -2.2350313825   -3.4604803430
H       -2.2446132380   -4.9986573846    1.6132500857
H       -1.1509171021   -4.9024386687    2.9998158085
H        2.2057179675    2.4215994240   -1.2642216171
H       -0.9119340192   -1.3005343794   -1.6588750827
H       -3.2116658090   -5.9438038056    3.5069909511
39   

C        2.1967502836   -1.0599473506    1.2901660926
C        0.8541470289   -1.4549625935    1.4802836804
C        2.5110683162    0.0414648510    0.4687656197
C        0.0648533818    2.0724113293   -1.3381006107
C        0.1844884556    0.3188639398    0.0457595770
C       -0.1875729603   -0.7460535204    0.8505118104
C       -0.7142691672    1.1446010078   -0.6897431505
C        1.4735532321    0.7306012535   -0.1573775640
C       -1.9425931986   -2.5022902916    1.3089161979
C       -2.0738799062   -3.0293370314    2.5407563847
C       -2.1939196797    0.8605675078   -0.6536938755
C       -1.6734229624   -1.0608965791    0.9666018944
C       -2.4226776312   -0.6447326307   -0.3382380167
C       -2.6049840736   -2.2953336437    3.7477466576
C       -2.7757360355   -1.4698706199   -2.6924289987
C       -1.8718858849   -4.5232120106    2.6804043220
N        1.4227867442    1.8332722547   -1.0179225427
N       -1.9593513204   -1.4735597334   -1.4704946794
O       -2.9795928553   -5.1289161734    3.3552494551
H        2.9922929822   -1.6076956686    1.7819458189
H        0.6336892549   -2.3013534115    2.1189832618
H        3.5386690876    0.3488608862    0.3228341760
H       -0.3148481010    2.8505028715   -1.9929508162
H       -1.8237323526   -3.1900209661    0.4786101061
H       -2.6480305741    1.4687321116    0.1342568985
H       -2.6638092556    1.1366477833   -1.6011458760
H       -2.0711872846   -0.4343164571    1.7689285333
H       -3.4948032548   -0.8163131377   -0.1960493725
H       -3.6810069467   -2.1307405693    3.6396537596
H       -2.4294562525   -2.8697817829    4.6623776327
H       -2.1056328062   -1.3296928137    3.8638833088
H       -3.8159814014   -1.7142653286   -2.4543257901
H       -2.7433417099   -0.4901829325   -3.1785894315
H       -2.3954809955   -2.2170391979   -3.3956682444
H       -1.7599705422   -4.9912795184    1.6972864323
H       -0.9530743590   -4.7106334715    3.2446383550
H        2.2279127432    2.3590590886   -1.3442000781
H       -0.9687481228   -1.2983103844   -1.6454641365
H       -2.8642895428   -6.0932052392    3.4212944273
39   

C        2.1865747239   -1.1120803629    1.2484579687
C        0.8390767842   -1.4771378665    1.4611983595
C        2.5112067403   -0.0195391199    0.4196514522
C        0.0804836710    2.0637685788   -1.3475091983
C        0.1841381735    0.3082857035    0.0347675040
C       -0.1978430462   -0.7472884053    0.8467993416
C       -0.7083869980    1.1543171777   -0.6848360828
C        1.4785946430    0.6910685047   -0.1903809100
C       -1.9770027743   -2.4691555298    1.3323553364
C       -2.0797837011   -2.9874852109    2.5749779914
C       -2.1935901151    0.9054270829   -0.6202790282
C       -1.6884928809   -1.0296828515    0.9891838350
C       -2.4529705140   -0.5939605838   -0.2998473873
C       -2.8481250033   -2.3492850222    3.7085449080
C       -2.8679273474   -1.4106206329   -2.6469178256
C       -1.6713733516   -4.4344698052    2.7564678060
N        1.4380630090    1.7938430866   -1.0510699656
N       -2.0297925433   -1.4332172981   -1.4400407968
O       -2.7270575419   -5.1975315955    3.3508446921
H        2.9778556199   -1.6758539517    1.7289316849
H        0.6123324003   -2.3165455471    2.1064876682
H        3.5427668526    0.2651656671    0.2565774906
H       -0.2925393432    2.8506114452   -1.9956645567
H       -1.7784835597   -3.1575417707    0.5178880888
H       -2.6177892109    1.5243752089    0.1758791015
H       -2.6745435358    1.1927966607   -1.5587800402
H       -2.0537670277   -0.4008114907    1.8052003581
H       -3.5259210963   -0.7405233124   -0.1375402463
H       -3.9196628450   -2.3694442464    3.4890454858
H       -2.6731426787   -2.8813302282    4.6486340492
H       -2.5344852206   -1.3117956917    3.8509726480
H       -3.9090848145   -1.6306860115   -2.3898942503
H       -2.8214354700   -0.4319934524   -3.1340837477
H       -2.5179267565   -2.1664773948   -3.3565591948
H       -1.4125802546   -4.8849623601    1.7930101824
H       -0.7827653942   -4.4804392616    3.3934819670
H        2.2492490986    2.3011001251   -1.3914081756
H       -1.0388946705   -1.2808180266   -1.6334666456
H       -2.4768540504   -6.1342328974    3.4371729514
39   

C        2.1429394228   -1.1435802358    1.2554751078
C        0.7862168101   -1.4685753279    1.4729392365
C        2.4965494831   -0.0619743246    0.4249376595
C        0.1227316414    2.0932841455   -1.3317519622
C        0.1781417200    0.3340660003    0.0486531951
C       -0.2324242977   -0.7100800892    0.8617514006
C       -0.6909035081    1.2079580400   -0.6661720231
C        1.4828304205    0.6781764848   -0.1812383414
C       -2.0664728464   -2.3818022609    1.3527607826
C       -2.1058579612   -2.9123392617    2.5994998578
C       -2.1827946569    1.0060114562   -0.5939973257
C       -1.7315239564   -0.9484700837    1.0096575132
C       -2.4880795542   -0.4847919244   -0.2743634995
C       -3.0202441777   -2.4268648417    3.7029087284
C       -2.9363752760   -1.2837577909   -2.6219393696
C       -1.5192639048   -4.2986672630    2.7747110470
N        1.4726339189    1.7818516013   -1.0413378200
N       -2.0956966834   -1.3346952897   -1.4177286686
O       -2.4656574946   -5.1941390105    3.3692822676
H        2.9188542815   -1.7297877586    1.7342203122
H        0.5409546082   -2.2996193651    2.1210293158
H        3.5354792580    0.1922758785    0.2583485023
H       -0.2285732366    2.8920078982   -1.9774584444
H       -1.8612099074   -3.0636462085    0.5344262847
H       -2.5829878932    1.6369077267    0.2051759512
H       -2.6590724408    1.3098917246   -1.5296818150
H       -2.0729028242   -0.3162612859    1.8341991355
H       -3.5643734536   -0.5980024274   -0.1077361461
H       -4.0507196878   -2.7279965308    3.4915279977
H       -2.7209833179   -2.8463335251    4.6684563591
H       -2.9812924798   -1.3367953158    3.7798541351
H       -3.9832592497   -1.4706429875   -2.3620043290
H       -2.8598130836   -0.3065923918   -3.1082379195
H       -2.6128719879   -2.0496403947   -3.3334277658
H       -1.2101551175   -4.7088955082    1.8080714456
H       -0.6288445757   -4.2355669227    3.4075262011
H        2.2976624811    2.2643641369   -1.3844021741
H       -1.1011504392   -1.2133443993   -1.6144220785
H       -2.1011880086   -6.0939108585    3.4401130096
39   

C        2.1135587342   -1.1447466169    1.2647863467
C        0.7521011935   -1.4368262934    1.4967744933
C        2.4839094258   -0.0992513524    0.3973306701
C        0.1453106270    2.0452995661   -1.4161384479
C        0.1708478503    0.3271223571    0.0164400697
C       -0.2569534323   -0.6839534749    0.8626847335
C       -0.6830201449    1.1977675987   -0.7200288040
C        1.4813009915    0.6389577994   -0.2285573877
C       -2.1359685346   -2.3103071038    1.3994249545
C       -2.1105886607   -2.8590092058    2.6482842726
C       -2.1781267180    1.0317432034   -0.6327026377
C       -1.7615495494   -0.8922936853    1.0204140888
C       -2.5134155920   -0.4428576512   -0.2724325915
C       -3.1377547199   -2.5669604730    3.7235880448
C       -2.9898878298   -1.2907921057   -2.5980338081
C       -1.3513359530   -4.1616501012    2.8043513036
N        1.4898664910    1.7150164412   -1.1225602149
N       -2.1445165881   -1.3283305139   -1.3966280739
O       -2.2141805944   -5.2156971922    3.2468760566
H        2.8800702242   -1.7282284904    1.7617362414
H        0.4995064150   -2.2380683776    2.1763081152
H        3.5267442710    0.1300002318    0.2192784828
H       -0.1925588453    2.8317348500   -2.0836684509
H       -1.9576901625   -2.9991690531    0.5805371959
H       -2.5585094670    1.6920118916    0.1522534780
H       -2.6538970737    1.3216029009   -1.5730865322
H       -2.0894814069   -0.2384102526    1.8340857167
H       -3.5911664445   -0.5285747470   -0.0990287275
H       -4.1161236945   -2.9499129319    3.4179675992
H       -2.8560315377   -3.0328060854    4.6730502824
H       -3.2164833603   -1.4874818180    3.8816842161
H       -4.0393868244   -1.4470115960   -2.3286140753
H       -2.8937105480   -0.3290593754   -3.1108767315
H       -2.6871583911   -2.0826731759   -3.2899558922
H       -0.8997589311   -4.4563239342    1.8515768177
H       -0.5410724182   -4.0240358299    3.5266622886
H        2.3231147026    2.1694707975   -1.4836207917
H       -1.1485544855   -1.2335950930   -1.6006324406
H       -1.7336017740   -6.0596404095    3.3119113878
39   

C        2.0752997605   -1.0906111317    1.3633284076
C        0.7049184714   -1.3345693817    1.5963798762
C        2.4803588435   -0.1081045923    0.4409808621
C        0.2171367965    2.0040751209   -1.4980650510
C        0.1814119407    0.3532629836    0.0128131377
C       -0.2817552548   -0.6040180844    0.9037434730
C       -0.6402381896    1.2149596441   -0.7692391359
C        1.5022829567    0.6192236690   -0.2333181989
C       -2.2372253735   -2.1663169520    1.4674531238
C       -2.1432021567   -2.7817115859    2.6928457439
C       -2.1393585262    1.1034906475   -0.6804448280
C       -1.7951592211   -0.7739116733    1.0488081655
C       -2.5210266626   -0.3449095586   -0.2683377067
C       -3.2081754624   -2.7165210859    3.7733487859
C       -3.0157460981   -1.2596882467   -2.5655893389
C       -1.2670134677   -4.0183819919    2.7469556874
N        1.5491231038    1.6487406771   -1.1790305762
N       -2.1727714262   -1.2762620034   -1.3619478999
O       -2.0443524749   -5.1948887405    2.9993547879
H        2.8216560794   -1.6611112444    1.9041488425
H        0.4323954186   -2.0788481427    2.3278143674
H        3.5303197613    0.0850677366    0.2620622528
H       -0.0928902931    2.7695814134   -2.2023684869
H       -2.1998449922   -2.8561884389    0.6310694499
H       -2.4991645273    1.8038877059    0.0790016971
H       -2.6032935820    1.3741357315   -1.6323965675
H       -2.1172264130   -0.0851865370    1.8356035262
H       -3.6022670885   -0.3911176289   -0.1016532500
H       -4.1596790997   -3.0882546793    3.3813833650
H       -2.9274619454   -3.3139318332    4.6463975560
H       -3.3429021644   -1.6805294058    4.0973657375
H       -4.0691277362   -1.3796959518   -2.2927063574
H       -2.8948355151   -0.3194443358   -3.1119083121
H       -2.7327347073   -2.0830586647   -3.2284941823
H       -0.7382028107   -4.1485056304    1.7969980077
H       -0.5158462658   -3.8987015727    3.5334959617
H        2.3980328296    2.0614542944   -1.5534778209
H       -1.1741005788   -1.2157406865   -1.5658839039
H       -1.4854369578   -5.9917838836    3.0018807316
