30

C      0.08088   -0.28506    5.95902
C     -0.41045   -0.20591    4.64120
C      1.41820   -0.63799    6.18863
C      0.52234   -0.49716    3.67083
C      1.85340   -0.84584    3.98301
C      1.66399   -0.87798    1.85889
C      3.11489   -1.47706    0.01741
C      0.72712   -0.99865   -0.41275
C      3.44563   -0.84600   -1.33045
C      1.13096   -0.37934   -1.74769
C      2.67796   -0.50876   -3.59620
N      2.31980   -0.92185    5.22818
N      2.54855   -1.08962    2.80001
N      1.85272   -0.92772    0.52131
N      2.33788   -1.01651   -2.27166
O      0.39463   -0.51952    2.29224
H     -0.57040   -0.07385    6.80151
H     -1.43786    0.06321    4.41482
H      1.78706   -0.69653    7.21112
H      3.02440   -2.56659   -0.09314
H      3.89658   -1.26947    0.74792
H     -0.12336   -0.46240    0.00746
H      0.43733   -2.04788   -0.56789
H      3.68958    0.22362   -1.18180
H      4.33499   -1.33674   -1.73907
H      0.31475   -0.52477   -2.46316
H      1.27166    0.71089   -1.61345
H      3.55820   -1.03588   -3.97725
H      2.89666    0.57564   -3.60000
H      1.84797   -0.69253   -4.28580
