21

C     -1.73999   -1.18815    0.62715
C     -0.39944   -0.96719    0.22026
C     -2.25037   -2.47239    0.76547
C      0.47400   -2.01298   -0.06130
C     -1.38024   -3.53898    0.48462
C     -0.04950   -3.30645    0.08089
C      1.77493   -4.95520   -0.49993
C      3.20242   -6.90214   -0.96311
N     -1.59926   -4.90849    0.53267
N     -0.51401   -5.51248    0.19248
N      0.45875   -4.57436   -0.09201
N      1.93925   -6.29611   -0.56947
O      2.61120   -4.09576   -0.74364
H     -2.37569   -0.33178    0.83339
H     -0.04263    0.05485    0.12528
H     -3.27411   -2.65723    1.07598
H      1.49873   -1.85255   -0.37245
H      3.07314   -7.51458   -1.86145
H      3.59878   -7.52793   -0.15674
H      3.91378   -6.10444   -1.17613
H      1.14101   -6.87481   -0.33256
