34

C      3.75871   -3.10446    0.20286
C      4.77242   -3.49207    1.04908
C      1.62652   -1.14708    3.09046
C      2.78567   -2.40736    1.00701
C      3.29780   -2.39856    2.33088
C      1.55141   -1.71307    0.83940
C     -0.33258   -0.80601   -0.45207
C      0.87402   -2.71020   -1.32725
C     -1.57353   -1.67654   -0.25666
C     -0.37657   -3.57345   -1.12942
C      5.33249   -3.27226    3.51302
C     -2.78815   -3.58603   -1.10423
N      2.74966   -1.79366    3.39898
N      1.00939   -1.07965    1.89912
N      4.49583   -3.07406    2.34124
N      0.89550   -1.60319   -0.36895
N     -1.59059   -2.76606   -1.23876
H      3.75506   -3.28014   -0.86313
H      5.68513   -4.03184    0.83288
H      1.13704   -0.61349    3.90378
H     -0.36247   -0.35528   -1.45098
H     -0.29748   -0.01882    0.29783
H      1.75814   -3.33015   -1.21246
H      0.87276   -2.29291   -2.34076
H     -1.58438   -2.05881    0.78058
H     -2.47231   -1.06566   -0.39824
H     -0.40072   -4.35259   -1.90032
H     -0.30774   -4.07876   -0.14550
H      6.31991   -2.82439    3.36246
H      4.84500   -2.78692    4.35901
H      5.45000   -4.33902    3.72908
H     -3.67806   -2.96213   -1.23675
H     -2.86197   -4.08526   -0.11934
H     -2.79679   -4.35891   -1.88002
