21

C      1.19484   -5.56527   -1.76382
C      0.71474   -4.41885   -1.06745
C      1.93930   -5.09252   -2.81552
C      1.19899   -3.31278   -1.74177
C     -0.82883   -0.91420    1.16985
C      0.38905   -1.28128   -0.56607
C      0.30394    0.19895   -0.42753
C      1.08175   -1.90328   -1.55832
C     -0.89036    1.63085    1.28513
N     -0.34222   -1.89543    0.46625
N     -0.50081    0.35222    0.71914
O      0.77982    1.11091   -1.09334
O      1.95557   -3.73485   -2.82199
H      1.01697   -6.60534   -1.52411
H      0.09369   -4.37328   -0.18439
H      2.49312   -5.57595   -3.60815
H     -1.44992   -1.04554    2.05142
H      1.59170   -1.26441   -2.27574
H     -0.53106    1.73090    2.31414
H     -1.97775    1.75513    1.26632
H     -0.43308    2.40909    0.67118
