29   

C        3.1035496182   -1.2030968108    1.7475705293
C        1.4094144113   -1.5964360798    0.0801021240
C        2.2017494121   -0.4164520270    2.4735292867
C        0.5139550993   -0.8075627646    0.8124700817
C        8.6198841078   -4.8922389704    2.0928952201
C        2.7327594007   -1.8046142647    0.5267251272
C        0.9008298674   -0.2086884142    2.0125516200
C        8.7125050890   -5.4066853044    0.8272830147
C        6.8303891460   -4.2771209444    0.5701293493
C        3.7024165726   -2.6399621917   -0.2168134320
C        9.8548954258   -6.2649959307    0.3804651430
C        3.4692370824   -3.0192585591   -1.6609711313
N        7.6922854121   -5.0439778508   -0.0420331628
N        4.7790733697   -3.0445969900    0.4268929231
N        5.7313936709   -3.8343934724   -0.1530658704
S        7.1883009356   -3.9127460949    2.2551142515
Cl      -0.2216722653    0.7730878869    2.9210344346
H        4.1037425338   -1.3357284359    2.1474641836
H        1.0390832198   -2.0530885614   -0.8288103551
H        2.5138338469    0.0377400446    3.4067078690
H       -0.4973291925   -0.6604224794    0.4515276202
H        9.3380632250   -5.0648475449    2.8840646551
H        9.5787545665   -7.3193246431    0.4681290458
H       10.0983061358   -6.0473158710   -0.6632947648
H       10.7387798710   -6.0742353479    0.9956408947
H        4.3787746038   -2.8489490765   -2.2441601435
H        3.2051098236   -4.0786449228   -1.7262216804
H        2.6817317050   -2.4232521992   -2.1245646650
H        5.6920570997   -4.1722182439   -1.1092321879
29   

C        3.1284952971   -1.0459908113    1.6552812826
C        1.3576945718   -1.7893399750    0.1977013357
C        2.2096946099   -0.2686615615    2.3701243097
C        0.4443881205   -1.0091682685    0.9171883507
C        8.6461431250   -4.8701765439    2.0732965021
C        2.7207557983   -1.8210723467    0.5526514399
C        0.8607744835   -0.2415817186    2.0077714341
C        8.7254223791   -5.3854152420    0.8070951338
C        6.8343396464   -4.2658330619    0.5729303275
C        3.7068963046   -2.6279424336   -0.1996191748
C        9.8255472585   -6.3019168032    0.3697768784
C        3.5191343883   -2.9059614776   -1.6734895488
N        7.6836971811   -5.0424239365   -0.0444749873
N        4.7652374377   -3.0595395771    0.4544348967
N        5.7283837004   -3.8245746864   -0.1403561833
S        7.2192563447   -3.8859451581    2.2483842820
Cl      -0.2829203483    0.7289162188    2.9018194977
H        4.1689882910   -1.0428034818    1.9642207286
H        0.9865825581   -2.3816138859   -0.6304199350
H        2.5450590846    0.3198821762    3.2160764778
H       -0.6012705854   -0.9991411537    0.6324404496
H        9.3650657607   -5.0540010961    2.8612489837
H        9.4317651350   -7.0530520904   -0.3207911044
H       10.6042056806   -5.7262856949   -0.1379233940
H       10.2625218012   -6.8121723962    1.2328086166
H        4.4213520552   -2.6238164594   -2.2239331439
H        3.3314135305   -3.9722442206   -1.8286437003
H        2.6870043215   -2.3325157189   -2.0883670492
H        5.6896744063   -4.1501179186   -1.1008371395
29   

C        3.1969415057   -0.8544876347    1.5023057106
C        1.4085632617   -1.9078044087    0.2737029424
C        2.2619441600   -0.0623809281    2.1791455630
C        0.4780706478   -1.1125807190    0.9535892628
C        8.6263772044   -4.9676056607    2.1600457199
C        2.7840038695   -1.7956411955    0.5432406672
C        0.8951406386   -0.1837848647    1.9117120546
C        8.7551844135   -5.4146519436    0.8722085200
C        6.8742067874   -4.2809588144    0.6247774012
C        3.7850856355   -2.6001014474   -0.1946948177
C        9.8717921633   -6.3085233076    0.4298144420
C        3.6586278056   -2.7858355416   -1.6899542826
N        7.7472776589   -5.0249610403    0.0003085112
N        4.8125518336   -3.0628701738    0.4843072620
N        5.7976011507   -3.8011917351   -0.1082151583
S        7.1934726869   -3.9914701957    2.3316717823
Cl      -0.2689346020    0.8059937249    2.7569675428
H        4.2528818708   -0.7408453145    1.7260611731
H        1.0531641870   -2.6220464856   -0.4605383182
H        2.5975480821    0.6541063886    2.9197461541
H       -0.5796214822   -1.2140634722    0.7401751174
H        9.3139452417   -5.1946079059    2.9645421767
H        9.5074705726   -7.0156910314   -0.3207497984
H       10.6731270212   -5.7073175926   -0.0081811375
H       10.2693369245   -6.8709360748    1.2793865029
H        4.5605441720   -2.4194140710   -2.1888038623
H        3.5319354105   -3.8467943232   -1.9234598659
H        2.8023958769   -2.2312944598   -2.0830979195
H        5.7993747751   -4.0747852152   -1.0855450167
29   

C        3.1945945422   -0.6967485437    1.3754722603
C        1.4329128229   -2.0557567134    0.4444379519
C        2.2396048120    0.0834493001    2.0382825023
C        0.4813810192   -1.2722740287    1.1087134843
C        8.5813589850   -5.0958118668    2.1797712219
C        2.8039912446   -1.7845038453    0.5790956423
C        0.8752822535   -0.1970395531    1.9117724590
C        8.7416840083   -5.4695582269    0.8722841284
C        6.8764268772   -4.3069193314    0.6404699247
C        3.8199422704   -2.5680245209   -0.1687465865
C        9.8625635162   -6.3475461875    0.4093535049
C        3.7329049996   -2.6503882328   -1.6765113982
N        7.7607962641   -5.0214178364   -0.0023469055
N        4.8242583500   -3.0710566178    0.5137604740
N        5.8233413925   -3.7781338574   -0.0929882482
S        7.1515343456   -4.1184231405    2.3689908079
Cl      -0.3142922323    0.7790071910    2.7372504681
H        4.2489013666   -0.4633633741    1.4831107838
H        1.1035273479   -2.8821202589   -0.1757152874
H        2.5566065077    0.9150253841    2.6567187760
H       -0.5737901017   -1.4956846423    1.0026785112
H        9.2449510988   -5.3748086854    2.9880324024
H        9.5132333257   -7.0064291407   -0.3906548170
H       10.6809080580   -5.7302093311    0.0290720756
H       10.2314068792   -6.9621969788    1.2353616656
H        4.6316508994   -2.2186358780   -2.1263259920
H        3.6472345485   -3.6951205752   -1.9884663174
H        2.8617784105   -2.0995778234   -2.0424482615
H        5.8517714428   -3.9945723173   -1.0841391503
29   

C        3.1355292131   -0.5266297060    1.1914526255
C        1.5006931609   -2.2121225490    0.6401356945
C        2.1465815690    0.2145302769    1.8494783564
C        0.5143796698   -1.4674456592    1.2982780914
C        8.5144713676   -5.2264853438    2.1985013651
C        2.8251535144   -1.7529678542    0.5870476221
C        0.8277571150   -0.2483107574    1.9086431100
C        8.7153215940   -5.5268621729    0.8777829471
C        6.8720236895   -4.3287069068    0.6509313728
C        3.8697234008   -2.5044761948   -0.1649324797
C        9.8415943492   -6.3914796431    0.4029089114
C        3.8223741245   -2.5064553167   -1.6770567680
N        7.7699291963   -5.0167476291   -0.0019835811
N        4.8397696474   -3.0598860054    0.5245016085
N        5.8509102952   -3.7456639601   -0.0866294872
S        7.0897470655   -4.2432493016    2.3956715710
Cl      -0.4051076990    0.6799259872    2.7256978153
H        4.1536093284   -0.1536808013    1.1532420039
H        1.2374739522   -3.1528885187    0.1692103518
H        2.4005141336    1.1576410986    2.3190947023
H       -0.5048801965   -1.8336434494    1.3374441150
H        9.1469336877   -5.5596447950    3.0111893251
H        9.5122523146   -6.9996738646   -0.4443236425
H       10.6789107348   -5.7641276925    0.0855224926
H       10.1757667447   -7.0564148720    1.2043600329
H        4.7269279540   -2.0414682964   -2.0794912464
H        3.7562113718   -3.5334256481   -2.0472583517
H        2.9519592870   -1.9466712420   -2.0314577830
H        5.9129299142   -3.9042677666   -1.0871412533
29   

C        3.0034815596   -0.3343971224    0.9185717896
C        1.6776434614   -2.3478872589    0.8599658964
C        1.9672035134    0.3257848468    1.5901135997
C        0.6432040183   -1.6842943341    1.5306908313
C        8.3997037775   -5.3778389893    2.2277010784
C        2.8677903795   -1.6776422547    0.5427311068
C        0.7772687629   -0.3415980084    1.8997441293
C        8.6546354243   -5.6114150726    0.9028105254
C        6.8638807513   -4.3391444822    0.6589578758
C        3.9649478917   -2.3725855586   -0.1962605202
C        9.7746815134   -6.4862644283    0.4318843311
C        3.9609854567   -2.3338121619   -1.7087062093
N        7.7697856436   -5.0209069782    0.0104661769
N        4.8802294047   -2.9973671871    0.5077720502
N        5.8994713798   -3.6813396436   -0.0919067708
S        6.9988380331   -4.3587807167    2.4139653978
Cl      -0.5155166255    0.4851458176    2.7330306664
H        3.9211998723    0.1968049969    0.6904356473
H        1.5592607868   -3.3903306139    0.5848867694
H        2.0834616675    1.3643944567    1.8769272270
H       -0.2725332219   -2.2120300420    1.7703055286
H        8.9814626730   -5.7765504008    3.0487048543
H        9.4621398184   -7.0462315160   -0.4540742746
H       10.6404618021   -5.8698518332    0.1752434965
H       10.0593051175   -7.1957006632    1.2140773954
H        4.8804552229   -1.8662669245   -2.0723712861
H        3.8967087808   -3.3497337743   -2.1086505166
H        3.1047889702   -1.7573818437   -2.0711125768
H        6.0066639690   -3.7859533718   -1.0956938639
29   

C        2.9266190872   -0.2049464314    0.7402586567
C        1.8909939174   -2.3438275555    1.1472008964
C        1.9100392363    0.4232367857    1.4702022542
C        0.8763293777   -1.7123767961    1.8763393219
C        8.1357931281   -5.7396620807    2.1602232581
C        2.9194927134   -1.5953817800    0.5557691179
C        0.8740193591   -0.3234361904    2.0410715164
C        8.5361219181   -5.7608976669    0.8509768659
C        6.7643797689   -4.4605387232    0.6168289960
C        4.0163370746   -2.2703719942   -0.1956486169
C        9.7646995019   -6.4807198617    0.3884196316
C        4.0553815740   -2.1532705588   -1.7033692952
N        7.7525280415   -5.0228024249   -0.0261093098
N        4.8574894998   -3.0114419682    0.4886447820
N        5.8799947288   -3.6835281515   -0.1186291295
S        6.6995921020   -4.7715837001    2.3483304435
Cl      -0.3926338305    0.4625896063    2.9504296531
H        3.7280405862    0.3903203810    0.3166402812
H        1.8874240581   -3.4235910969    1.0420982385
H        1.9234331846    1.4988109053    1.6022901946
H        0.0855954546   -2.3023767453    2.3247935660
H        8.6442730663   -6.2462626308    2.9703307840
H        9.4923530035   -7.4716649700    0.0152580456
H       10.2450887908   -5.9175331060   -0.4166913193
H       10.4749176559   -6.5910682411    1.2127724756
H        5.0062440822   -1.7152065171   -2.0196962983
H        3.9516209194   -3.1429241983   -2.1574650595
H        3.2387087303   -1.5167954317   -2.0562252927
H        6.0855866294   -3.6390373817   -1.1114849554
29   

C        2.7504928152   -0.1970145339    0.5370552073
C        2.0605865346   -2.3657431174    1.3334583570
C        1.7154596651    0.3975743896    1.2692190537
C        1.0273892790   -1.7671714097    2.0640861150
C        8.0294186304   -5.8618747012    2.1408782355
C        2.9241458514   -1.5903818988    0.5431104580
C        0.8423717894   -0.3813954903    2.0353436029
C        8.4921618181   -5.8096167556    0.8532293046
C        6.7413134468   -4.4825933738    0.6121121644
C        4.0504625404   -2.2175130858   -0.1945211894
C        9.7373508727   -6.5115609297    0.4079541126
C        4.1629668036   -2.0243869921   -1.6904131478
N        7.7559432097   -5.0145864325   -0.0150527180
N        4.8520467231   -3.0109662837    0.4805368468
N        5.8975441352   -3.6560364874   -0.1169198748
S        6.5912247408   -4.8944632494    2.3170991010
Cl      -0.4465380935    0.3635128844    2.9480366359
H        3.4246884416    0.4294678126   -0.0364584700
H        2.2005802772   -3.4407356074    1.3818230728
H        1.5879874003    1.4736481413    1.2513666334
H        0.3659586962   -2.3800320369    2.6652338914
H        8.4956359205   -6.4193846634    2.9429412109
H        9.4776649995   -7.4774994629   -0.0335497222
H       10.2579005114   -5.9073065510   -0.3404240434
H       10.4075200759   -6.6741847094    1.2568133707
H        5.1228789618   -1.5612505838   -1.9357817299
H        4.0954102501   -2.9911115510   -2.1977307071
H        3.3568074891   -1.3817268055   -2.0555696895
H        6.1519613296   -3.5526072828   -1.0939536885
29   

C        2.5840723532   -0.2594293576    0.3842318107
C        2.1942484523   -2.3597321412    1.5005116962
C        1.5297578293    0.3148048875    1.1051689056
C        1.1414799161   -1.7811022720    2.2188630296
C        7.9538335091   -5.9770891624    2.1176686770
C        2.9221799324   -1.6121161030    0.5576784838
C        0.7968753201   -0.4404409485    2.0254370833
C        8.4671568087   -5.8575279185    0.8538748152
C        6.7251308921   -4.5188472288    0.6135190978
C        4.0617295866   -2.2114743719   -0.1742817620
C        9.7297871968   -6.5361741761    0.4217695063
C        4.2462227872   -1.9359550012   -1.6495133009
N        7.7647215577   -5.0175378836    0.0000842257
N        4.8396505679   -3.0420068814    0.4859495938
N        5.9089025849   -3.6549770143   -0.1034419944
S        6.5082061118   -5.0195700850    2.2872894882
Cl      -0.5161062613    0.2800020321    2.9233370617
H        3.1445144052    0.3589138212   -0.3079299764
H        2.4517158062   -3.3991674260    1.6772539162
H        1.2776668659    1.3584376441    0.9574976356
H        0.5887527346   -2.3745365814    2.9377595188
H        8.3888051641   -6.5763446792    2.9070898911
H        9.4887395837   -7.4764252277   -0.0814542968
H       10.2796088108   -5.8931225673   -0.2713019186
H       10.3653645915   -6.7455109823    1.2868410444
H        5.1986206372   -1.4247405934   -1.8162804269
H        4.2476853091   -2.8769918228   -2.2072071120
H        3.4359113168   -1.3115842854   -2.0353786755
H        6.2025067465   -3.4980516800   -1.0621870912
29   

C        2.4325338196   -0.3423954475    0.2529355462
C        2.3247523190   -2.3078156900    1.6403794822
C        1.3612655935    0.2120849199    0.9646391184
C        1.2547405875   -1.7488621800    2.3483124270
C        7.8819729603   -6.0805050423    2.0832403752
C        2.9281775610   -1.6189496408    0.5693049311
C        0.7609124556   -0.4855620795    2.0156764988
C        8.4417421256   -5.9029666597    0.8462455086
C        6.7106582839   -4.5503649022    0.6049350556
C        4.0705077969   -2.2061535077   -0.1653726598
C        9.7187137686   -6.5641383056    0.4294663528
C        4.3228451297   -1.8549009390   -1.6136882773
N        7.7720200599   -5.0219741653    0.0076280686
N        4.8306779979   -3.0666684107    0.4792772711
N        5.9209440620   -3.6523161922   -0.0995925114
S        6.4317777852   -5.1284177820    2.2443250194
Cl      -0.5735361164    0.2112759281    2.9004732259
H        2.8795335672    0.2475920757   -0.5384151778
H        2.6875394893   -3.2895879257    1.9277515132
H        0.9919533541    1.1976758805    0.7062197734
H        0.8037969041   -2.2985220422    3.1662567409
H        8.2869610496   -6.7175370794    2.8589216271
H        9.4953476625   -7.4805772925   -0.1234038770
H       10.2931210739   -5.8919875111   -0.2143017678
H       10.3229924688   -6.8130519051    1.3064012600
H        5.2465462880   -1.2754569831   -1.6990488977
H        4.4248783096   -2.7685357722   -2.2065124347
H        3.4979606030   -1.2784908196   -2.0387322481
H        6.2502147029   -3.4487541023   -1.0377504633
29   

C        2.5516747244   -0.0660144021    0.8413084550
C        2.1134855963   -2.3680644564    1.3863079502
C        1.7248642865    0.3339871904    1.8990291372
C        1.2891263194   -1.9622127501    2.4414996199
C        5.7510061372   -7.3190758861   -1.1786920054
C        2.7611230709   -1.4265233467    0.5566655755
C        1.0851108570   -0.6076959380    2.7070392555
C        6.4006120283   -6.7057488910   -2.2164532221
C        5.2573742559   -4.9610214851   -1.4862468560
C        3.6282788696   -1.8676322497   -0.5591567609
C        7.3909847543   -7.4135979469   -3.0880192749
C        4.0616311173   -0.9102166669   -1.6450817028
N        6.1198795998   -5.3562634129   -2.3837323071
N        4.0199604515   -3.1259531331   -0.5634164237
N        4.8633382566   -3.6304372425   -1.5127871019
S        4.7125261316   -6.1913560626   -0.3508537850
Cl       0.0571629064   -0.1014356294    4.0247062562
H        3.0355309320    0.7173352814    0.2723777297
H        2.2431344968   -3.4318918222    1.2147930658
H        1.5794144658    1.3884643512    2.1028186532
H        0.8025958741   -2.7058078634    3.0618945412
H        5.8706159434   -8.3589553687   -0.9032718467
H        6.8980725717   -7.7571426884   -4.0014844501
H        8.2032466292   -6.7324998902   -3.3572864578
H        7.8136668192   -8.2750976242   -2.5633373455
H        5.1110394448   -0.6381315876   -1.5002895394
H        3.9552231103   -1.3832234306   -2.6255673851
H        3.4537532282   -0.0045947936   -1.6687902023
H        5.2900741428   -3.0799021032   -2.2508655758
29   

C        2.3237398333   -0.0866313973    0.6461110515
C        2.3095860694   -2.3330387893    1.5024691003
C        1.4352990909    0.2940096185    1.6608211099
C        1.4228731355   -1.9456656851    2.5124919564
C        5.6937224669   -7.3486251294   -1.1862346574
C        2.7842542972   -1.4107702184    0.5405130985
C        0.9767250205   -0.6281455747    2.6018123345
C        6.3688491103   -6.7427225759   -2.2119928226
C        5.3038115562   -4.9652924395   -1.4435165371
C        3.7223105480   -1.8444774327   -0.5209381216
C        7.3218663898   -7.4763267116   -3.1036597502
C        4.2523150168   -0.8930025920   -1.5680491953
N        6.1491592919   -5.3786227303   -2.3491231429
N        4.0927140611   -3.1098757169   -0.5242288240
N        4.9621875728   -3.6200886146   -1.4470848683
S        4.7068557258   -6.1939246107   -0.3327624721
Cl      -0.1301760007   -0.1429895198    3.8622325496
H        2.6198475424    0.7009910174   -0.0305639034
H        2.6257128828   -3.3709187893    1.4776085999
H        1.0940807354    1.3208693919    1.7225702666
H        1.0769566558   -2.6755212241    3.2351289633
H        5.7659893060   -8.3988219316   -0.9344780602
H        6.8061107617   -7.7880222641   -4.0159920910
H        8.1570344388   -6.8236994572   -3.3732953360
H        7.7159627230   -8.3607522284   -2.5951739843
H        5.3424032194   -0.8412241274   -1.4926091279
H        3.9954998282   -1.2687454780   -2.5628404606
H        3.8689062270    0.1214800074   -1.4963912081
H        5.4044172472   -3.0752677083   -2.1802722351
29   

C        2.0925954732   -0.1962426710    0.4886399674
C        2.4660838558   -2.2666190815    1.6558839975
C        1.1485215213    0.1703821762    1.4564821773
C        1.5218393563   -1.8948746154    2.6191623157
C        5.6649309987   -7.3363337920   -1.2459186402
C        2.7776713247   -1.4210588956    0.5685505681
C        0.8553804606   -0.6722901579    2.5301976734
C        6.3514903022   -6.7158384444   -2.2551931288
C        5.3426583332   -4.9353897362   -1.4206876539
C        3.7812420112   -1.8232405119   -0.4427294970
C        7.2730824034   -7.4474081004   -3.1808676540
C        4.3652058702   -0.8227846618   -1.4131727084
N        6.1721391664   -5.3418064431   -2.3439709966
N        4.1409076001   -3.0908014361   -0.4709178949
N        5.0337907050   -3.5827695631   -1.3807892157
S        4.7173186390   -6.1831023453   -0.3473763668
Cl      -0.3238545463   -0.2090560470    3.7318807583
H        2.2507357433    0.4943902790   -0.3295250776
H        2.9614240893   -3.2261437899    1.7649076498
H        0.6296408936    1.1183125256    1.3740227508
H        1.3028165661   -2.5620940635    3.4446209739
H        5.7063102526   -8.3964059530   -1.0313412207
H        6.7406461021   -7.7071275887   -4.0999191201
H        8.1281046643   -6.8138238115   -3.4329830368
H        7.6398661946   -8.3632489615   -2.7088970856
H        5.4492835197   -0.9525969234   -1.4781749388
H        3.9346162318   -0.9777237355   -2.4065851946
H        4.1938806226    0.2087721529   -1.1022947229
H        5.4804552168   -3.0277540291   -2.1035387901
29   

C        1.9062605249   -0.2971349334    0.3442880173
C        2.5575165485   -2.1525011012    1.7347212621
C        0.9396336252    0.0656740968    1.2906441440
C        1.5898497590   -1.7855812673    2.6767989081
C        5.6950333748   -7.3023658831   -1.2517383993
C        2.7426732884   -1.4071612947    0.5531882423
C        0.7740037461   -0.6719282733    2.4655273970
C        6.3763689625   -6.6718664652   -2.2583596994
C        5.3241310974   -4.9094300494   -1.4391526762
C        3.7547389855   -1.8085589353   -0.4487221090
C        7.2618247837   -7.4001849896   -3.2211909848
C        4.4070082073   -0.7809911037   -1.3451221020
N        6.1554585618   -5.3052209313   -2.3654043196
N        4.0862603360   -3.0818097271   -0.5018856318
N        4.9960592317   -3.5612793136   -1.4013915058
S        4.7279054781   -6.1629830473   -0.3562477215
Cl      -0.4338449148   -0.2158196073    3.6412263347
H        1.9802279608    0.2926302213   -0.5617134771
H        3.1716964845   -3.0264376206    1.9273156438
H        0.3038088378    0.9251442390    1.1128822127
H        1.4675428121   -2.3716809459    3.5801466936
H        5.7425225578   -8.3635093972   -1.0438311856
H        7.1818718828   -6.9493944661   -4.2144439162
H        8.3004978280   -7.3378445259   -2.8854919644
H        6.9693741507   -8.4519420369   -3.2875935278
H        5.4952945046   -0.8792540094   -1.2945972420
H        4.0877239076   -0.9356818682   -2.3797187769
H        4.1551894093    0.2375904221   -1.0410857096
H        5.4513736072   -2.9974256396   -2.1118529942
29   

C        1.7822378618   -0.4242069420    0.2297570962
C        2.6811492613   -2.0083722314    1.8082589559
C        0.7978318778   -0.0637346941    1.1582324025
C        1.6950690476   -1.6448030252    2.7327271492
C        5.5965513030   -7.3204353769   -1.3379865931
C        2.7515270176   -1.3907701377    0.5467547359
C        0.7470920708   -0.6670371019    2.4183267548
C        6.3394092930   -6.6762819666   -2.2909791510
C        5.2957339166   -4.9135816286   -1.4614176913
C        3.7694402211   -1.8021769389   -0.4472620673
C        7.2491085111   -7.3968480628   -3.2368939431
C        4.4936446477   -0.7595532068   -1.2687349946
N        6.1585558479   -5.3014253150   -2.3619035129
N        4.0665440451   -3.0817577318   -0.5199762283
N        5.0015546713   -3.5587672584   -1.3944333762
S        4.6187452223   -6.1849331277   -0.4491771877
Cl      -0.4830212802   -0.2155699140    3.5725307382
H        1.7821565883    0.0493279850   -0.7455877439
H        3.3985602277   -2.7794715150    2.0703270582
H        0.0594282811    0.6866933386    0.9010461955
H        1.6597582171   -2.1284791085    3.7018985179
H        5.6070598636   -8.3886778400   -1.1640887140
H        7.2326605977   -6.9073669832   -4.2147989575
H        8.2711679002   -7.3807430652   -2.8488765339
H        6.9281863428   -8.4353585593   -3.3578521751
H        5.5727043262   -0.8430566707   -1.1098927157
H        4.2801073862   -0.9086644689   -2.3309887175
H        4.1834110693    0.2489893577   -0.9824862718
H        5.5053890067   -2.9856992741   -2.0635888494
29   

C        1.6701449596   -0.5938102025    0.1485782222
C        2.8006290893   -1.8317749255    1.8815289744
C        0.6669970070   -0.2407795410    1.0595963550
C        1.7954952125   -1.4767241333    2.7888568820
C        5.4989241373   -7.3299994570   -1.4341849174
C        2.7624172527   -1.3778752743    0.5533502181
C        0.7223634224   -0.6747704484    2.3879841363
C        6.3013874770   -6.6756474506   -2.3301606710
C        5.2770550226   -4.9118220479   -1.4791029109
C        3.8015750236   -1.7925242901   -0.4233856540
C        7.2277365466   -7.3902179395   -3.2643757627
C        4.5946035282   -0.7368428138   -1.1611385888
N        6.1659037207   -5.2939905494   -2.3564447889
N        4.0616341991   -3.0768664951   -0.5262991418
N        5.0212854962   -3.5515439413   -1.3747462145
S        4.5188082288   -6.1969239198   -0.5448958602
Cl      -0.5309066094   -0.2335899033    3.5210589919
H        1.5966879397   -0.2587376958   -0.8801441726
H        3.6165241839   -2.4697449523    2.2053468818
H       -0.1677828388    0.3701394549    0.7364486256
H        1.8421208685   -1.8308464315    3.8120325010
H        5.4690611299   -8.4036640963   -1.3006376914
H        7.2698400466   -6.8635620188   -4.2219889327
H        8.2318548215   -7.4238215573   -2.8330754533
H        6.8788059278   -8.4117852317   -3.4398269211
H        5.6568418317   -0.8295200863   -0.9171143203
H        4.4664565520   -0.8600732160   -2.2402691514
H        4.2575121800    0.2641391415   -0.8771464901
H        5.5725301721   -2.9712952071   -1.9988154931
29   

C        1.5738173093   -0.8245973682    0.0642534545
C        2.8953145039   -1.5926250459    1.9288131107
C        0.5486251681   -0.4584049050    0.9450250575
C        1.8682687421   -1.2253163090    2.8064101404
C        5.3814040412   -7.3487717211   -1.5734540715
C        2.7670216958   -1.3807728306    0.5480870660
C        0.6877549968   -0.6513015392    2.3235007929
C        6.2488369409   -6.6875205838   -2.4011883361
C        5.2521758022   -4.9240710792   -1.5170314677
C        3.8483878308   -1.7989052280   -0.3897328649
C        7.1902766683   -7.3960681193   -3.3248464412
C        4.7045268840   -0.7374621044   -1.0444716605
N        6.1664626733   -5.3017581847   -2.3698952972
N        4.0608636295   -3.0862388796   -0.5398466648
N        5.0426118948   -3.5605921086   -1.3627016332
S        4.4033976108   -6.2184493025   -0.6784344236
Cl      -0.5920846141   -0.1932713927    3.4195836629
H        1.4412452184   -0.6788688411   -1.0021704757
H        3.7982667453   -2.0515210367    2.3174502289
H       -0.3671631776   -0.0252151151    0.5601029881
H        1.9820886666   -1.3910998285    3.8713190767
H        5.3052488312   -8.4252633277   -1.4907686531
H        7.2944894350   -6.8309275278   -4.2553908656
H        8.1719943651   -7.4860898854   -2.8520732727
H        6.8131669585   -8.3952555805   -3.5605586863
H        5.7483987243   -0.8609128476   -0.7420251572
H        4.6376381579   -0.8222477080   -2.1327901520
H        4.3673845648    0.2596301590   -0.7466335762
H        5.6456109430   -2.9758083266   -1.9322864247
29   

C        1.5613619961   -1.0618340796    0.1393338493
C        3.0559647327   -1.2965201024    2.0166981570
C        0.5459934184   -0.6347825577    1.0038620276
C        2.0388043194   -0.8682551330    2.8782198187
C        5.0980205304   -7.3557213043   -1.8985162388
C        2.8286965820   -1.3933844943    0.6363144241
C        0.7758316845   -0.5313759479    2.3799519374
C        6.1297814108   -6.7054872773   -2.5210558143
C        5.1478010739   -4.9439215725   -1.6168848447
C        3.9189654320   -1.8241890141   -0.2901936870
C        7.1957131330   -7.4211589987   -3.2912780791
C        4.8340175014   -0.7719456378   -0.8776584857
N        6.1573699034   -5.3276684465   -2.3514006002
N        4.0389136773   -3.1070756665   -0.5423969545
N        5.0280927056   -3.5863700002   -1.3536343029
S        4.0753995652   -6.2229961288   -1.0578121641
Cl      -0.4903972703    0.0060709168    3.4555825003
H        1.3645393417   -1.1406300596   -0.9243746358
H        4.0282584658   -1.5581070241    2.4199253629
H       -0.4307830569   -0.3819067658    0.6083330592
H        2.2260149232   -0.7965983447    3.9432640582
H        4.9412189932   -8.4264780363   -1.9173274295
H        6.9517979182   -7.4078533928   -4.3569844856
H        8.1592263462   -6.9259027215   -3.1411715080
H        7.2775058367   -8.4587940475   -2.9554786313
H        5.8671218213   -0.9629799881   -0.5737102934
H        4.7750436367   -0.7935853754   -1.9695989660
H        4.5417981006    0.2225972054   -0.5281337059
H        5.7462987951   -3.0115621127   -1.7823527776
29   

C        1.5517503003   -1.4138460068    0.2083646926
C        3.0730734496   -0.9840268227    2.0299812342
C        0.4851172425   -0.9630953753    0.9954172056
C        2.0038544769   -0.5330484813    2.8134993664
C        5.0096544948   -7.3234842485   -2.0642919932
C        2.8566745827   -1.4376884628    0.7203230245
C        0.7010319827   -0.5184336372    2.3041087842
C        6.0846006521   -6.6791111215   -2.6157807765
C        5.1454416729   -4.9376181407   -1.6309125777
C        3.9945139527   -1.8595807158   -0.1449185505
C        7.1447519884   -7.3899474174   -3.3983089784
C        4.9367950362   -0.8033812494   -0.6791110319
N        6.1610206113   -5.3165851357   -2.3595511922
N        4.0738117117   -3.1277971659   -0.4767566854
N        5.0702794704   -3.5952630321   -1.2858908221
S        4.0066027332   -6.2034025089   -1.1840784844
Cl      -0.6299560373    0.0478167560    3.2823673934
H        1.3682464946   -1.7544994188   -0.8052030430
H        4.0766424288   -0.9838023092    2.4410102484
H       -0.5202063349   -0.9562736545    0.5907475695
H        2.1814193888   -0.1891040585    3.8257730943
H        4.8121815643   -8.3838923501   -2.1537618985
H        6.9246412294   -7.3175859908   -4.4668204807
H        8.1195018792   -6.9332902429   -3.2046670993
H        7.1873260465   -8.4446011312   -3.1119046017
H        5.9602740084   -1.0204876619   -0.3605993625
H        4.9005169174   -0.7891459964   -1.7722100412
H        4.6527437111    0.1845653584   -0.3051349857
H        5.8237380529   -3.0244555127   -1.6553549621
29   

C        1.5734138330   -1.6549796411    0.2956960588
C        3.0681684429   -0.7371112104    1.9512017720
C        0.4762250417   -1.2065254835    1.0407443391
C        1.9677770337   -0.2899189456    2.6926016930
C        4.9248678273   -7.2829212574   -2.1787184954
C        2.8841721437   -1.4364733401    0.7476348019
C        0.6628429018   -0.5209339276    2.2454058860
C        6.0451886554   -6.6616803012   -2.6623069641
C        5.1346880162   -4.9224414415   -1.6470948916
C        4.0419314028   -1.8614908119   -0.0795509985
C        7.1079661543   -7.3842664768   -3.4303658047
C        5.0412538034   -0.8269699491   -0.5473965324
N        6.1634791090   -5.3139281389   -2.3500542273
N        4.0872850994   -3.1177258153   -0.4634142815
N        5.0964992772   -3.5922830667   -1.2524483588
S        3.9307284912   -6.1575701817   -1.2950944477
Cl      -0.7070387265    0.0398434715    3.1717534175
H        1.4101312939   -2.1833173874   -0.6380147817
H        4.0707702241   -0.5431251323    2.3160586790
H       -0.5303510759   -1.3900536990    0.6835413503
H        2.1222442224    0.2427240680    3.6237158046
H        4.6907662187   -8.3305349895   -2.3172114447
H        6.9332220181   -7.2641609330   -4.5029534608
H        8.0908044866   -6.9735240991   -3.1823857952
H        7.0993850002   -8.4495761037   -3.1830372878
H        6.0404238011   -1.0824485651   -0.1833737591
H        5.0599314780   -0.7937407268   -1.6405740190
H        4.7717926593    0.1649790892   -0.1737765200
H        5.8863573545   -3.0382607262   -1.5674368841
29   

C        1.6171136347   -1.8208713071    0.4035976886
C        3.0576184756   -0.5343236630    1.8482596717
C        0.5032509896   -1.3869785744    1.1321672416
C        1.9397941384   -0.1034156563    2.5729852461
C        4.8418290735   -7.2307580095   -2.2737878516
C        2.9136934256   -1.4067286714    0.7549840386
C        0.6537324673   -0.5252298130    2.2226547587
C        6.0039736610   -6.6419004438   -2.6952545543
C        5.1249740412   -4.8977880670   -1.6608579836
C        4.0806579251   -1.8407763793   -0.0473040898
C        7.0654357114   -7.3839614841   -3.4463705043
C        5.1489215952   -0.8440212651   -0.4366326053
N        6.1639358554   -5.3101654814   -2.3363236769
N        4.0991607004   -3.0873585782   -0.4675210739
N        5.1227028876   -3.5793410703   -1.2270236447
S        3.8598816980   -6.0924040153   -1.3931915654
Cl      -0.7374469189    0.0149743031    3.1292902984
H        1.4747343696   -2.4885462560   -0.4401614754
H        4.0421915610   -0.1929434050    2.1476522801
H       -0.4886437047   -1.7208832940    0.8508742786
H        2.0661286175    0.5641419890    3.4173569882
H        4.5715580659   -8.2631836438   -2.4541890173
H        6.9372054359   -7.2231662208   -4.5202083595
H        8.0538349805   -7.0225926552   -3.1486399162
H        7.0040454888   -8.4551995921   -3.2347052488
H        6.1084464822   -1.1386248829   -0.0022012305
H        5.2491391464   -0.8110661556   -1.5254115692
H        4.8945611045    0.1601479264   -0.0871247589
H        5.9459077688   -3.0483167080   -1.4923106799
29   

C        1.6594230187   -1.9602811568    0.5259989799
C        3.0169009466   -0.3770497678    1.7360610404
C        0.5367056650   -1.5495755625    1.2541765593
C        1.8894170121    0.0288527214    2.4602586543
C        4.7739594774   -7.1695800170   -2.3793306876
C        2.9227413522   -1.3801659598    0.7512358250
C        0.6402507276   -0.5514070134    2.2260711504
C        5.9780236638   -6.6167278330   -2.7251809443
C        5.1154485691   -4.8668306482   -1.6867509670
C        4.0968534930   -1.8178811448   -0.0356499507
C        7.0468543803   -7.3802602403   -3.4436041091
C        5.2280385839   -0.8607286212   -0.3340763512
N        6.1708245931   -5.3024364261   -2.3208829068
N        4.0986070755   -3.0531318682   -0.4919762588
N        5.1400621604   -3.5614269799   -1.2156578971
S        3.7932011792   -6.0167299099   -1.5165043543
Cl      -0.7622194007   -0.0415528682    3.1329008392
H        1.5424897067   -2.7380761403   -0.2219602676
H        3.9683935302    0.0890188639    1.9635367307
H       -0.4260063163   -2.0099158146    1.0650685772
H        1.9805374068    0.7996770407    3.2166383964
H        4.4734492371   -8.1850989655   -2.6027716855
H        6.9859067142   -7.1779372506   -4.5163457750
H        8.0316620201   -7.0738375062   -3.0797196816
H        6.9277143717   -8.4541681001   -3.2743209850
H        6.1325970344   -1.1807126064    0.1909473760
H        5.4312577617   -0.8473757053   -1.4088358724
H        4.9819251912    0.1600353920   -0.0326202648
H        5.9954224070   -3.0556476383   -1.4219328409
29   

C        1.7214130773   -2.0872880607    0.6633168289
C        2.9509881018   -0.2399090161    1.6037911569
C        0.5889486437   -1.6977834870    1.3878216140
C        1.8130203367    0.1426234446    2.3243522671
C        4.7133423056   -7.1099033701   -2.4877522314
C        2.9282127725   -1.3613675554    0.7464252832
C        0.6224756154   -0.5791742744    2.2220833670
C        5.9541539412   -6.5965322108   -2.7559769130
C        5.1058103883   -4.8407769804   -1.7158226873
C        4.1126750862   -1.8012238488   -0.0246090483
C        7.0295635202   -7.3830887543   -3.4388538388
C        5.3029071174   -0.8940093406   -0.2340282901
N        6.1755074399   -5.3015405399   -2.3066225747
N        4.0989031874   -3.0230802408   -0.5190196186
N        5.1550179543   -3.5501585476   -1.2075248989
S        3.7335558514   -5.9415312052   -1.6448983520
Cl      -0.7923967290   -0.0965328902    3.1245455528
H        1.6456024828   -2.9641716151    0.0283093296
H        3.8493542795    0.3469843038    1.7461384585
H       -0.3272636720   -2.2704163069    1.3032293438
H        1.8514388231    1.0069257995    2.9771360925
H        4.3863731471   -8.1066811150   -2.7542943088
H        7.0384407508   -7.1451348517   -4.5059580823
H        8.0038259589   -7.1310002807   -3.0105726013
H        6.8565612732   -8.4555723319   -3.3124439508
H        6.1480355705   -1.2495291343    0.3623657001
H        5.5929573160   -0.8972196100   -1.2887449064
H        5.0872023417    0.1419126565    0.0315020511
H        6.0386705680   -3.0731393683   -1.3544113964
29   

C        1.8203703882   -2.2238510969    0.9047885438
C        2.8406084044   -0.1130713211    1.4469934467
C        0.6603739298   -1.8349765836    1.5842423346
C        1.6755520420    0.2672556573    2.1244887516
C        4.7058895742   -7.0544246314   -2.5561950636
C        2.9452913146   -1.3747898125    0.8137165683
C        0.5759621286   -0.5869686551    2.1998593279
C        5.9607990042   -6.5557415708   -2.7834269311
C        5.1312105722   -4.8288645241   -1.6816799370
C        4.1542549362   -1.8260670897    0.0859375352
C        7.0302659213   -7.3334971658   -3.4854278082
C        5.3867781581   -0.9620058969   -0.0444295951
N        6.2010634805   -5.2863430531   -2.2747125346
N        4.1309385532   -3.0313414683   -0.4486928993
N        5.1968344917   -3.5612605953   -1.1201711799
S        3.7364708267   -5.9033498505   -1.6782678167
Cl      -0.8727941546   -0.1041857307    3.0467817058
H        1.8260301734   -3.2072409625    0.4459139137
H        3.6422639316    0.6112592293    1.4424231082
H       -0.1856405427   -2.5104388458    1.6345919972
H        1.6204943521    1.2393020838    2.6007088360
H        4.3630575971   -8.0315102859   -2.8713034758
H        7.0575413372   -7.0512001516   -4.5413708334
H        8.0033820341   -7.1182802577   -3.0350163707
H        6.8355608863   -8.4068018838   -3.4065794603
H        6.2346005055   -1.4616476744    0.4332703555
H        5.6224320412   -0.8205992199   -1.1033143170
H        5.2872377919    0.0249249091    0.4016103442
H        6.0899262361   -3.0938075546   -1.2378135036
