25   

C        0.0105573826   -0.0883375269    1.3395602435
C        1.6315915788   -0.6648274863    2.9781618795
C       -0.8485070196   -1.0133232516    1.9325686219
C        1.2903646388    0.0991544980    1.8649608425
C        0.7131164193   -1.5752243347    3.5069017957
C        2.3068155728    1.0640187604    1.3402247223
C        2.8380681007    4.1068737874    0.8906410131
C        2.3053644490   -2.4956487357    5.2196180721
C        2.6598988351    2.9335815301   -0.0679097649
N       -0.5020784104   -1.7463631808    2.9999122044
N        0.9834241837   -2.3744189920    4.5923156947
O        3.4839625908    1.0103968266    1.6879602945
O        1.7633965729    1.9602501259    0.4871598488
H       -0.3259909877    0.4760133754    0.4786768322
H        2.6062431381   -0.5584452122    3.4337538007
H       -1.8386997202   -1.1463291542    1.5123870474
H        1.8688629101    4.5660921057    1.1069741297
H        3.2915276749    3.7698943654    1.8277426498
H        3.4915614096    4.8591138257    0.4393531826
H        3.0600031218   -2.7672309317    4.4738513755
H        2.2838943343   -3.2797624879    5.9831103325
H        2.5886171383   -1.5544646691    5.7021041575
H        3.6348225558    2.4881949263   -0.2959446056
H        2.2412007129    3.3008418514   -1.0101271051
H        0.2105359061   -2.9865041031    4.8285315738
25   

C        0.0044831896   -0.1990521351    1.2398528687
C        1.6132868913   -0.6612449422    2.9260970329
C       -0.8487593591   -1.1029278488    1.8727996617
C        1.2749854004    0.0322566773    1.7672048216
C        0.7016521664   -1.5548517495    3.4936948303
C        2.2751099011    0.9929847864    1.2060392413
C        2.9470392100    4.0384111337    1.0390451735
C        2.2871961420   -2.3586335936    5.2695454498
C        2.5523630840    3.0036911554   -0.0100210638
N       -0.5046828596   -1.7717386744    2.9825989251
N        0.9696795333   -2.2873828603    4.6256147436
O        3.4814726938    0.8377962912    1.3762560206
O        1.6782889778    2.0174135929    0.5575825281
H       -0.3273348485    0.3180598971    0.3480491690
H        2.5819206062   -0.5113424628    3.3822862622
H       -1.8324079777   -1.2720343227    1.4502383942
H        2.0530796145    4.5174899968    1.4493635463
H        3.5047337824    3.5647957780    1.8526572370
H        3.5805507421    4.8053731670    0.5840479810
H        3.0522513376   -2.6575526525    4.5451515040
H        2.2688939107   -3.1031348973    6.0717964473
H        2.5535079874   -1.3903544014    5.7058268011
H        3.4513340831    2.5394046301   -0.4309315076
H        2.0304566502    3.5061181963   -0.8304807672
H        0.2032512226   -2.8980952284    4.8853687995
25   

C        0.0074002580   -0.3065419484    1.1425024481
C        1.6014939278   -0.6426243889    2.8713682775
C       -0.8332637145   -1.1981629541    1.8090491927
C        1.2641710229   -0.0203196030    1.6729261234
C        0.7036682244   -1.5287521878    3.4717468338
C        2.2388730825    0.9462395074    1.0763455470
C        3.0749543225    3.9545472951    1.1723356796
C        2.2833150659   -2.2052383444    5.3046915409
C        2.4681678423    3.0791712809    0.0803716925
N       -0.4893268620   -1.8015320704    2.9559747887
N        0.9724078789   -2.1947587933    4.6438052778
O        3.4443278151    0.7154916475    1.0557508731
O        1.6224066748    2.0714178149    0.6528364361
H       -0.3225805753    0.1612602744    0.2233305624
H        2.5602754790   -0.4426838597    3.3288541381
H       -1.8068516887   -1.4115216291    1.3832297897
H        2.2817311312    4.4194481402    1.7653827801
H        3.7117033666    3.3571356437    1.8318177458
H        3.6849136838    4.7421921104    0.7204942593
H        3.0636644310   -2.5197235409    4.6035795091
H        2.2722507438   -2.9118589164    6.1406370148
H        2.5221412766   -1.2117535875    5.6980742542
H        3.2658405445    2.6297204044   -0.5217975408
H        1.8678378495    3.7043633562   -0.5880064619
H        0.2174374699   -2.8111437605    4.9231274428
25   

C        0.0000375453   -0.4203919870    1.0538689272
C        1.5751150576   -0.6201675352    2.8195098734
C       -0.8190094437   -1.3123442833    1.7465804079
C        1.2360438471   -0.0650175702    1.5894988981
C        0.7002575378   -1.5115479649    3.4455768163
C        2.1794534535    0.9113924770    0.9554244961
C        3.2336921335    3.8351014240    1.2661769726
C        2.2732896254   -2.0494902257    5.3296257040
C        2.4072426937    3.1370400342    0.1907532048
N       -0.4730482367   -1.8511450777    2.9246075739
N        0.9735318398   -2.1145572626    4.6502293251
O        3.3475278159    0.6198870095    0.7191122374
O        1.5883533516    2.1112718599    0.7700226404
H       -0.3303209443   -0.0061402034    0.1096364365
H        2.5185053277   -0.3642567241    3.2804537698
H       -1.7766716606   -1.5804608698    1.3156343819
H        2.5748689763    4.2625797714    2.0279265419
H        3.9189233222    3.1269426092    1.7418044197
H        3.8225886180    4.6403389896    0.8174117347
H        3.0757318174   -2.3624794103    4.6532219886
H        2.2749936408   -2.7220134611    6.1933181872
H        2.4689907284   -1.0327873470    5.6857179047
H        3.0701367785    2.7254835579   -0.5787186980
H        1.7586183698    3.8718995351   -0.2963570760
H        0.2372163290   -2.7465376942    4.9442726188
25   

C       -0.0269236387   -0.5166798655    0.9873739458
C        1.5073228748   -0.5633423129    2.7973350023
C       -0.8118150595   -1.4314497303    1.6898076392
C        1.1693194218   -0.0679607045    1.5422480382
C        0.6690052406   -1.4833438571    3.4321804664
C        2.0741851249    0.9292091628    0.8797495816
C        3.3820915010    3.7254648178    1.3305344812
C        2.2236925541   -1.8745501701    5.3671447347
C        2.3378092768    3.2158399343    0.3421665675
N       -0.4682592781   -1.9083227711    2.8947633691
N        0.9454478051   -2.0307537141    4.6623756844
O        3.1582603000    0.6037712015    0.4075907125
O        1.5506166020    2.1719013569    0.9327287296
H       -0.3520347589   -0.1598741502    0.0182739629
H        2.4217640519   -0.2386094185    3.2723744143
H       -1.7388393023   -1.7716933227    1.2430609414
H        2.8933788320    4.0886436153    2.2395430380
H        4.0812238063    2.9262064822    1.5944751614
H        3.9476129118    4.5474248916    0.8820199890
H        3.0578173786   -2.1571767428    4.7161772623
H        2.2442961328   -2.5249285792    6.2474012536
H        2.3528440508   -0.8399363649    5.7012903903
H        2.8304410812    2.8688781259   -0.5731522028
H        1.6751392017    4.0411785292    0.0634079898
H        0.2397148766   -2.6961770427    4.9578084847
25   

C       -0.0354173343   -0.6209374550    0.9244683021
C        1.4465039748   -0.5115178132    2.7729245118
C       -0.7704194790   -1.5748009315    1.6287295915
C        1.1049630317   -0.0657313930    1.5003941698
C        0.6609784747   -1.4763053057    3.4089961742
C        1.9627876354    0.9576757738    0.8134414703
C        3.5370982187    3.5983350149    1.3242668135
C        2.1919485704   -1.7151453356    5.3875459702
C        2.2984894028    3.2756348973    0.4942247682
N       -0.4273684422   -1.9958061723    2.8542853071
N        0.9457970481   -1.9768375174    4.6571281307
O        2.9039209635    0.6344106580    0.0969669066
O        1.5505995361    2.2105863176    1.0979212205
H       -0.3531735874   -0.3198948808   -0.0658135661
H        2.3224953218   -0.1118989128    3.2626572211
H       -1.6547061666   -1.9961061184    1.1647630511
H        3.2460685459    3.8706206754    2.3431926003
H        4.2080824219    2.7348019306    1.3617803385
H        4.0762224411    4.4377916545    0.8756548918
H        3.0599113408   -1.9453956418    4.7606296132
H        2.2397062258   -2.3483951919    6.2791701630
H        2.2363138718   -0.6686601519    5.7063636527
H        2.5932543872    3.0201865773   -0.5298345967
H        1.6623737885    4.1646177294    0.4386016574
H        0.2834797217   -2.6868269235    4.9494802895
25   

C       -0.0393601551   -0.7060493912    0.8711638244
C        1.3754249784   -0.4491834931    2.7559473177
C       -0.7145102527   -1.7061578151    1.5708861526
C        1.0313365455   -0.0455824336    1.4697048514
C        0.6529466494   -1.4652822326    3.3869433996
C        1.8358574251    1.0114430516    0.7719612644
C        3.6646788957    3.4759870313    1.2911692219
C        2.1439152338   -1.5519051905    5.4085121789
C        2.2808396769    3.3313185333    0.6653763204
N       -0.3743182053   -2.0789210137    2.8126707092
N        0.9449216878   -1.9259378287    4.6487126917
O        2.5925915917    0.7364218574   -0.1529799823
O        1.5694971188    2.2396673084    1.2656115009
H       -0.3454796759   -0.4529739272   -0.1362277308
H        2.2037368398    0.0252549044    3.2615448179
H       -1.5456093432   -2.2075212970    1.0885609589
H        3.5746381889    3.6305475418    2.3705504770
H        4.2637570507    2.5791527573    1.1062652508
H        4.1818565694    4.3352048137    0.8543060820
H        3.0453393635   -1.7170404734    4.8088880807
H        2.2189232536   -2.1675683177    6.3105215696
H        2.0922104418   -0.5013672026    5.7125512340
H        2.3747042423    3.1941813798   -0.4177544290
H        1.7144231617    4.2533643788    0.8297562698
H        0.3343745740   -2.6833418350    4.9347958460
25   

C       -0.0258538010   -0.7633857470    0.8257468984
C        1.3109634356   -0.3814774233    2.7450938763
C       -0.6385583274   -1.8092872128    1.5155109458
C        0.9698053838   -0.0121552857    1.4471367435
C        0.6543096322   -1.4475729023    3.3655083133
C        1.7132082991    1.0875839118    0.7530705716
C        3.7622102436    3.3769523677    1.2344219645
C        2.0878956888   -1.3974651482    5.4297204461
C        2.2872940530    3.3805486268    0.8439458776
N       -0.3047986072   -2.1448531666    2.7695093276
N        0.9486421685   -1.8766964648    4.6378068979
O        2.2722457414    0.9026755196   -0.3229521864
O        1.6120859241    2.2560960688    1.4249874581
H       -0.3189423862   -0.5451867380   -0.1938552653
H        2.0856533459    0.1595998666    3.2686600522
H       -1.4119048555   -2.3798734317    1.0144132683
H        3.8626590178    3.3962273839    2.3237328829
H        4.2589473139    2.4832081783    0.8446274903
H        4.2586079742    4.2589344644    0.8193849859
H        3.0186072430   -1.4944915099    4.8607514999
H        2.1837536118   -1.9952488425    6.3417260730
H        1.9408045824   -0.3515299769    5.7180512206
H        2.1911140037    3.3790009064   -0.2476136982
H        1.8207959078    4.2999601470    1.2114550373
H        0.3920488541   -2.6778122073    4.9147504257
25   

C        0.0287372993   -0.8095777784    0.7817536856
C        1.2668838117   -0.3354897300    2.7450069431
C       -0.5272159668   -1.9007313335    1.4485810698
C        0.9446829862    0.0132579000    1.4358329513
C        0.6711113866   -1.4500376698    3.3414553052
C        1.6187093045    1.1674762983    0.7636076975
C        3.8355413385    3.3117528561    1.1574376505
C        2.0219360346   -1.2972755681    5.4560558386
C        2.3190568872    3.4126717842    1.0228146322
N       -0.2120043883   -2.2151331657    2.7125592296
N        0.9532940191   -1.8610157251    4.6224800070
O        1.9861368933    1.1001382118   -0.4051518672
O        1.6882116498    2.2482142631    1.5742785240
H       -0.2462691414   -0.6097778822   -0.2468818953
H        1.9806135761    0.2577927008    3.2980564968
H       -1.2386202907   -2.5252034349    0.9206813307
H        4.1125830199    3.1931559507    2.2092075372
H        4.2140620173    2.4567639328    0.5889165886
H        4.3043468386    4.2210300725    0.7701570632
H        2.9785462425   -1.3247857358    4.9236204006
H        2.1267818362   -1.8855521471    6.3732345414
H        1.7860676235   -0.2650677336    5.7347531232
H        2.0469386669    3.5489063936   -0.0298728284
H        1.9681033352    4.2948308702    1.5674318052
H        0.4477579968   -2.7014294588    4.8801681840
25   

C        0.0858201818   -0.8666664612    0.7560576787
C        1.2213561849   -0.3218557174    2.7609736049
C       -0.4196036977   -1.9954205003    1.3994039000
C        0.9256943321    0.0121473110    1.4410200236
C        0.6799507410   -1.4764781574    3.3330620724
C        1.5266111330    1.2178166999    0.7911165458
C        3.8761823328    3.2445985210    1.0196910075
C        1.9347653527   -1.2411924251    5.4992840640
C        2.3645442949    3.4010306501    1.1554975514
N       -0.1277147235   -2.2953600504    2.6719811120
N        0.9420573493   -1.8741489347    4.6225993742
O        1.7012653531    1.2661934266   -0.4228396366
O        1.7815435498    2.2016743472    1.6846133256
H       -0.1718228818   -0.6789304391   -0.2795334363
H        1.8739230036    0.3094079811    3.3464882984
H       -1.0713279262   -2.6613081090    0.8456924062
H        4.3183541308    3.0055002680    1.9914631574
H        4.1160571778    2.4458818964    0.3111662021
H        4.3148472886    4.1771378296    0.6529579229
H        2.9127447552   -1.2052459228    5.0077706407
H        2.0391603066   -1.8215039952    6.4215721176
H        1.6196630400   -0.2269288795    5.7652828152
H        1.9280090918    3.6576379176    0.1837111477
H        2.1491510445    4.2286357384    1.8386059129
H        0.4823118478   -2.7460495322    4.8606515477
25   

C        0.1760387795   -0.8957975823    0.7325216594
C        1.1930840094   -0.3049847980    2.7862085373
C       -0.2853777003   -2.0601715950    1.3439825855
C        0.9360440605    0.0249057155    1.4567222080
C        0.7003560006   -1.4971956411    3.3249124630
C        1.4674248711    1.2804174288    0.8405157902
C        3.9051098280    3.2198660765    0.8666121638
C        1.8452543193   -1.2113036615    5.5456848014
C        2.4436062937    3.3939639534    1.2683527108
N       -0.0270828920   -2.3567263767    2.6241017476
N        0.9300874652   -1.8919218540    4.6215775881
O        1.4554401989    1.4451207703   -0.3760350673
O        1.9096351660    2.1599118889    1.7689637425
H       -0.0575595473   -0.7113660388   -0.3094637086
H        1.7777121257    0.3535078836    3.4118219595
H       -0.8745958863   -2.7565022785    0.7585760720
H        4.4917651818    2.8733270108    1.7226301723
H        3.9944288055    2.4926927896    0.0537768255
H        4.3125924776    4.1753932975    0.5238522257
H        2.8398500072   -1.1139969454    5.0977747712
H        1.9430622568   -1.7937195639    6.4673640722
H        1.4604527118   -0.2196507620    5.8051599466
H        1.8632841304    3.7578703053    0.4130115125
H        2.3754231831    4.1521305898    2.0547878375
H        0.5131586481   -2.7919163295    4.8323430133
25   

C       -0.2165400033   -0.1451356746    1.1670596065
C        1.6037171909   -0.9779460576    2.4288019946
C       -1.0725518695   -0.6645470975    2.1364097584
C        1.1663382290   -0.2939569980    1.2958189243
C        0.6809483107   -1.4631200149    3.3603718360
C        2.1228154593    0.2448069853    0.2788622929
C        4.7248598256    1.9348553437   -0.0427950637
C        2.4251252113   -2.2690178968    4.9830560098
C        4.4007575778    0.4708985014   -0.3241063617
N       -0.6293766075   -1.3148426771    3.2196952289
N        1.0438385398   -2.1312668900    4.5057364107
O        1.7210518790    0.8448842168   -0.7141357891
O        3.4125524201   -0.0123886527    0.5971802610
H       -0.6330054434    0.3738580286    0.3117319022
H        2.6571979187   -1.1408656101    2.6026644935
H       -2.1411878809   -0.5354417597    2.0094936515
H        3.8371939232    2.5579898380   -0.1882510961
H        5.0786482185    2.0507641990    0.9859936714
H        5.5068911666    2.2799156312   -0.7253919326
H        2.9026611402   -1.2867257434    5.0628448775
H        3.0034843719   -2.9047917333    4.3047763146
H        2.4305655250   -2.7313480684    5.9752677518
H        5.3107924209   -0.1263492228   -0.2097925708
H        4.0639242598    0.3569820744   -1.3606483126
H        0.2438651200   -2.3945315613    5.0705153830
25   

C       -0.2419974884   -0.2286197886    1.1194314196
C        1.6037034535   -0.9329982818    2.4227966294
C       -1.0809825330   -0.8031350617    2.0726155559
C        1.1442244831   -0.2867055744    1.2766654845
C        0.6967101020   -1.4780745451    3.3363865230
C        2.0854181185    0.3288016418    0.2899209015
C        4.8133319961    1.8152203649    0.0554619954
C        2.4573708640   -2.1548948869    4.9995981770
C        4.3354939461    0.4518042668   -0.4348831177
N       -0.6174683627   -1.4206284266    3.1667957284
N        1.0799867151   -2.1131402584    4.4938386890
O        1.6832387399    1.1040253205   -0.5729464938
O        3.3595006478   -0.0920785284    0.4652459360
H       -0.6733809288    0.2652037412    0.2566663982
H        2.6626851746   -1.0158993194    2.6189593193
H       -2.1530798122   -0.7447875202    1.9244295823
H        3.9824189056    2.5269817305    0.0764097318
H        5.2340306124    1.7268125299    1.0615535051
H        5.5850100752    2.2021700646   -0.6163577833
H        2.8658506560   -1.1422192189    5.0829266156
H        3.0909888011   -2.7533702410    4.3369312085
H        2.4737462984   -2.6109685235    5.9945834525
H        5.1891477392   -0.2314508494   -0.4837132744
H        3.9311041297    0.5418634422   -1.4493617395
H        0.2881852243   -2.4275218591    5.0437998291
25   

C       -0.2549273632   -0.3035217520    1.0680454962
C        1.5968584167   -0.8835585500    2.4247445353
C       -1.0796058764   -0.9340441090    1.9985143615
C        1.1261735148   -0.2730978143    1.2641520783
C        0.7038979182   -1.4893028922    3.3131534676
C        2.0555403988    0.4204452873    0.3194364472
C        4.8889716395    1.6897426386    0.1157630725
C        2.4603407129   -2.0439335056    5.0248283902
C        4.2574587300    0.4690706030   -0.5468868192
N       -0.6060376690   -1.5208860273    3.1057541913
N        1.0970528382   -2.0947366569    4.4830379508
O        1.6706467197    1.3475836132   -0.3868193054
O        3.2908826578   -0.1320214487    0.3264492013
H       -0.6922849564    0.1676758157    0.1958278811
H        2.6546803916   -0.8876086373    2.6441965612
H       -2.1489477385   -0.9452976822    1.8220814009
H        4.1308423625    2.4544762747    0.3104902713
H        5.3592575193    1.4033060471    1.0611792265
H        5.6516763798    2.1167069639   -0.5419087008
H        2.7986667991   -1.0062558076    5.1147218551
H        3.1493517559   -2.6006745058    4.3813391702
H        2.4806460739   -2.4955401987    6.0217806073
H        5.0390583417   -0.2651122263   -0.7660643850
H        3.8029566881    0.7570562333   -1.5014921095
H        0.3136560442   -2.4607674974    5.0127125234
25   

C       -0.2429259240   -0.3809587724    1.0281236728
C        1.5955274571   -0.8465957482    2.4477772817
C       -1.0553274932   -1.0718771945    1.9264416541
C        1.1245164764   -0.2642390156    1.2737204557
C        0.7149364603   -1.5165540383    3.3013952510
C        2.0434978861    0.5074387316    0.3801788917
C        4.9604896784    1.5568488073    0.1406096619
C        2.4416813989   -1.9534358658    5.0754542791
C        4.1718745487    0.5197314861   -0.6534323204
N       -0.5820306280   -1.6343656440    3.0468997102
N        1.1070295520   -2.1005344954    4.4824062388
O        1.6931414602    1.5629185764   -0.1382306530
O        3.2170185075   -0.1383438967    0.1910952182
H       -0.6790317971    0.0714023696    0.1456151992
H        2.6443585464   -0.7774892562    2.6976500399
H       -2.1151170648   -1.1514802586    1.7137227069
H        4.2932640891    2.3372241447    0.5191913234
H        5.4671327378    1.0788051144    0.9843063623
H        5.7118544651    2.0244789286   -0.5022925840
H        2.7034183981   -0.8945118927    5.1730134543
H        3.1918338233   -2.4623259249    4.4614028999
H        2.4551191887   -2.3999918350    6.0747996370
H        4.8635194926   -0.2285383837   -1.0530581401
H        3.6803908019    0.9994096641   -1.5073128276
H        0.3315780054   -2.5194487666    4.9838553414
25   

C       -0.2202863390   -0.4575045376    1.0013351456
C        1.5843951871   -0.8080383827    2.4970110842
C       -1.0198264396   -1.2118053113    1.8597411968
C        1.1230993140   -0.2501357501    1.3081342066
C        0.7172741731   -1.5455450540    3.3074727564
C        2.0296696126    0.5950169907    0.4669097161
C        5.0008963974    1.4427229718    0.1142347490
C        2.3915440405   -1.8728557319    5.1536454251
C        4.0547645276    0.6201932717   -0.7553308494
N       -0.5563588340   -1.7508652976    2.9960179971
N        1.0989717034   -2.1119685829    4.5003670107
O        1.7340295209    1.7465628365    0.1651184443
O        3.1182500865   -0.0962882479    0.0616781194
H       -0.6487330706   -0.0271252627    0.1045033649
H        2.6148023779   -0.6669560709    2.7892218019
H       -2.0616265021   -1.3624973226    1.6015226612
H        4.4436125491    2.1965013050    0.6787869443
H        5.5307979554    0.7900806781    0.8144648042
H        5.7351192040    1.9533156954   -0.5156626000
H        2.5730196433   -0.7984436581    5.2635056884
H        3.2029053696   -2.3252060581    4.5741429560
H        2.3912399485   -2.3208757633    6.1524278050
H        4.6374684234   -0.1003657013   -1.3377842277
H        3.5391735546    1.2748666981   -1.4668952440
H        0.3334977546   -2.5867596699    4.9660955584
25   

C       -0.1660321521   -0.5061149332    0.9858182878
C        1.5738987443   -0.7582040912    2.5761807842
C       -0.9607363726   -1.3196651695    1.7934258005
C        1.1409319227   -0.2152010615    1.3706004875
C        0.7131305898   -1.5584575944    3.3320031994
C        2.0469643606    0.6835808577    0.5815031330
C        5.0458471691    1.3191298090    0.0420997042
C        2.2994336843   -1.7949907257    5.2671675718
C        3.9393308069    0.7414576125   -0.8350956603
N       -0.5261341654   -1.8405100932    2.9495217276
N        1.0661243852   -2.1150594767    4.5382772932
O        1.8542951497    1.8929077019    0.5166462239
O        3.0159077256   -0.0191290977   -0.0433951811
H       -0.5707677009   -0.0984525692    0.0678886735
H        2.5762932816   -0.5560654650    2.9242722359
H       -1.9744741036   -1.5353698728    1.4763517219
H        4.6276884440    2.0122362399    0.7784030677
H        5.5696703737    0.5135721744    0.5653076075
H        5.7650873514    1.8628402473   -0.5772950335
H        2.4020607069   -0.7116810916    5.3908296104
H        3.1716780999   -2.1883266567    4.7349848514
H        2.2706829137   -2.2489334369    6.2628571875
H        4.3846035526    0.0822396426   -1.5868807402
H        3.4287239227    1.5497612742   -1.3705536602
H        0.3079965115   -2.6419516108    4.9576810346
25   

C       -0.0787846003   -0.5508400116    0.9637997111
C        1.5730880981   -0.7082871741    2.6583183946
C       -0.8695824999   -1.4179687496    1.7179839598
C        1.1784032318   -0.1785902047    1.4342456214
C        0.7184926955   -1.5655461981    3.3563338143
C        2.0927780181    0.7569022311    0.6967483108
C        5.0820685502    1.1858004273   -0.0731133632
C        2.1960158167   -1.7221921179    5.3831285262
C        3.8353501885    0.8762010237   -0.8959731511
N       -0.4758723283   -1.9189730695    2.8973498640
N        1.0325306710   -2.1125759281    4.5776539481
O        2.0511944359    1.9700044643    0.8705944314
O        2.9135645128    0.0826175792   -0.1352794962
H       -0.4471552314   -0.1700217027    0.0195887546
H        2.5392000887   -0.4498563360    3.0666514363
H       -1.8450604100   -1.6964336325    1.3363739789
H        4.8209596595    1.7790432615    0.8084768859
H        5.5599072647    0.2558795451    0.2493219639
H        5.7934249436    1.7562998232   -0.6773464575
H        2.2216265533   -0.6357987448    5.5191169494
H        3.1225241830   -2.0543237226    4.9035305281
H        2.1354477050   -2.1867598444    6.3724657177
H        4.1259479148    0.3168340908   -1.7907854953
H        3.3696622760    1.8098094357   -1.2311566673
H        0.2842773426   -2.6884546988    4.9473832642
25   

C       -0.1967764491    0.4863320556    2.0098402042
C        1.5950536691   -0.5203387440    3.1958135702
C       -0.9881189508   -0.6039396576    2.3718089856
C        1.1296548116    0.5444761474    2.4313202580
C        0.7395490329   -1.5799966649    3.5089527040
C        2.0642035502    1.6652146493    2.0816458433
C        2.5789943097    3.8694502180   -0.0523347014
C        2.5109806543   -2.9347287629    4.6698482909
C        3.3509090792    2.6131248618    0.3394638164
N       -0.5262532351   -1.6226649615    3.1105469103
N        1.1301862461   -2.6721354185    4.2466478122
O        2.4285141042    2.4871675729    2.9156322422
O        2.4514899346    1.5905213845    0.7904744583
H       -0.6170053179    1.2798929048    1.4050468089
H        2.6170313219   -0.5207309347    3.5463810345
H       -2.0192989456   -0.6309366178    2.0391492779
H        1.8503850593    3.6344195280   -0.8339816317
H        2.0538583135    4.2818180641    0.8146174069
H        3.2706165211    4.6271434961   -0.4319758731
H        3.1812321265   -2.9449530820    3.8038556589
H        2.5701284897   -3.9129908917    5.1574764945
H        2.8446166418   -2.1747123364    5.3839079656
H        4.0911539384    2.8564156724    1.1099278183
H        3.8976659693    2.2413405917   -0.5327959905
H        0.3844428001   -3.3483101570    4.3679295306
25   

C       -0.1191128435    0.4219806086    1.8977159702
C        1.6169818908   -0.5496494558    3.1933458803
C       -0.9352495742   -0.6437936675    2.2773260180
C        1.1903809309    0.4867981722    2.3689902084
C        0.7386452437   -1.5860782914    3.5199033636
C        2.1632637171    1.5647232543    1.9994691637
C        2.5685408331    3.9778088959    0.0794586650
C        2.4533333318   -2.9076901022    4.7974585683
C        3.2560392632    2.6200509024    0.1870556060
N       -0.5124700246   -1.6330852948    3.0772910453
N        1.0908037619   -2.6502614156    4.3155880268
O        2.7479935553    2.2274746729    2.8502476035
O        2.3353237666    1.6271883076    0.6609239646
H       -0.5051988458    1.1891421795    1.2384221492
H        2.6263188564   -0.5450541633    3.5795877033
H       -1.9529577005   -0.6769824952    1.9059948746
H        1.7063016256    3.9104897215   -0.5906886074
H        2.2312255136    4.3149561855    1.0643492369
H        3.2680179183    4.7178511904   -0.3200818249
H        3.1534593203   -2.9581247123    3.9568618174
H        2.4857548988   -3.8662164391    5.3251282090
H        2.7693934342   -2.1225945617    5.4921303543
H        4.1290209921    2.6960235964    0.8449876438
H        3.6176805494    2.3214759703   -0.8019186134
H        0.3345903370   -3.3145912270    4.4371020898
25   

C       -0.0631825238    0.3356599677    1.7793484640
C        1.6311893514   -0.5846201496    3.1663688020
C       -0.9000523510   -0.7001752068    2.1947303462
C        1.2362900203    0.4113282767    2.2778993148
C        0.7332049819   -1.5929510129    3.5254744633
C        2.2366573867    1.4520709803    1.8829800443
C        2.5726932454    4.0609791919    0.2240903140
C        2.4017697103   -2.8623348046    4.9120123205
C        3.1420620098    2.6551678138    0.0584311702
N       -0.5076481205   -1.6500424190    3.0556955680
N        1.0540109674   -2.6174826918    4.3840137070
O        2.9976204413    1.9585637011    2.7021057120
O        2.2153311514    1.6766181279    0.5502564483
H       -0.4254184485    1.0705759262    1.0713541950
H        2.6312521392   -0.5718100359    3.5765472280
H       -1.9090316882   -0.7426093563    1.8011855895
H        1.6181226129    4.1446795481   -0.3039755178
H        2.4171022830    4.2884949775    1.2831013917
H        3.2696993887    4.7953622810   -0.1899365834
H        3.1211992688   -2.9642893815    4.0926423166
H        2.4109801439   -3.7916421250    5.4904142168
H        2.7099496321   -2.0444602420    5.5715276063
H        4.1061597466    2.5809251167    0.5739404913
H        3.3245627196    2.4647534975   -1.0038424897
H        0.2879469329   -3.2671928829    4.5214897100
25   

C       -0.0192080340    0.2443572560    1.6655843000
C        1.6473094957   -0.6079978665    3.1289485267
C       -0.8701117743   -0.7603817110    2.1260073422
C        1.2752272714    0.3374285869    2.1769973632
C        0.7357470663   -1.5878152751    3.5302356113
C        2.2928626729    1.3492863493    1.7544323251
C        2.6092143443    4.1270548017    0.3848529578
C        2.3727121709   -2.7892924118    5.0115575915
C        3.0306383894    2.7200236595   -0.0280375880
N       -0.4980952560   -1.6628535731    3.0448868872
N        1.0345903242   -2.5636424147    4.4512412932
O        3.1950123507    1.7072605950    2.5068928098
O        2.1031844690    1.7486963904    0.4769495955
H       -0.3691296031    0.9418452737    0.9146701349
H        2.6401474675   -0.5827705487    3.5561201921
H       -1.8739122120   -0.8170533865    1.7211707727
H        1.6008149741    4.3404749368    0.0179357414
H        2.6219268454    4.2260419973    1.4745767633
H        3.3007643418    4.8612934173   -0.0384783169
H        3.1030895348   -2.9405270979    4.2096599128
H        2.3662807099   -3.6859884660    5.6393520756
H        2.6779233583   -1.9391229330    5.6303664320
H        4.0476007953    2.5171177446    0.3260544398
H        3.0470709282    2.6564911426   -1.1205911136
H        0.2616495647   -3.1995878239    4.6123440138
25   

C        0.0045352568    0.1390694625    1.5528138984
C        1.6517749399   -0.6378501857    3.0786437968
C       -0.8561240138   -0.8341921967    2.0599866154
C        1.2967201392    0.2531015914    2.0689075051
C        0.7305994328   -1.5888984336    3.5248030842
C        2.3240808932    1.2414399867    1.6137058883
C        2.6647931189    4.1529703755    0.5575270503
C        2.3440318143   -2.7111259734    5.0919030347
C        2.9095319965    2.7884771104   -0.0796466594
N       -0.4983294035   -1.6855693323    3.0313988627
N        1.0134937462   -2.5112306877    4.5042222729
O        3.3456951165    1.4523975177    2.2626971599
O        1.9878642539    1.8184027493    0.4385311760
H       -0.3396482635    0.7960478234    0.7636444961
H        2.6387985938   -0.5977882034    3.5179660473
H       -1.8566187458   -0.9076548492    1.6496970541
H        1.6350284540    4.4741654930    0.3746043662
H        2.8391610438    4.1081164747    1.6368859556
H        3.3462165360    4.8920147511    0.1262154286
H        3.0823856079   -2.9124623512    4.3085313360
H        2.3253185052   -3.5697380278    5.7706189561
H        2.6474580386   -1.8281023601    5.6638135682
H        3.9467890141    2.4788260104    0.0906404809
H        2.7664445315    2.8671547871   -1.1619133424
H        0.2355463851   -3.1335508568    4.6920954826
25   

C        0.0014460471    0.0232906549    1.4472078673
C        1.6331767285   -0.6590573192    3.0337092134
C       -0.8620983934   -0.9224449528    1.9994262125
C        1.2886617472    0.1698137672    1.9688291751
C        0.7095187780   -1.5861977091    3.5230062064
C        2.3164778368    1.1413422201    1.4788156812
C        2.7401893544    4.1390428267    0.7286217926
C        2.3081445572   -2.6137585333    5.1680646012
C        2.7782842435    2.8526274340   -0.0906165585
N       -0.5131169194   -1.7156622883    3.0217899511
N        0.9826194737   -2.4480184308    4.5587283017
O        3.4312705298    1.2111440098    1.9908910834
O        1.8634430729    1.8860432065    0.4460764992
H       -0.3383792108    0.6339425951    0.6198706890
H        2.6136400768   -0.5916262516    3.4841587050
H       -1.8579193267   -1.0221133512    1.5833325623
H        1.7248125493    4.5463119309    0.7420846052
H        3.0625717329    3.9477046995    1.7566518753
H        3.4115691086    4.8809300840    0.2865614492
H        3.0536869262   -2.8562483188    4.4033695533
H        2.2842862321   -3.4341874901    5.8923154914
H        2.6055859137   -1.7004855476    5.6937381587
H        3.8002507690    2.4579997359   -0.1164107587
H        2.4892437546    3.0759327019   -1.1223862600
H        0.2045937828   -3.0621053477    4.7716804607
