28

C     -1.27792    0.79826   -1.47034
C     -0.91687   -0.12704   -0.47797
C     -2.28770    0.49140   -2.38934
C     -1.53835   -1.37773   -0.37788
C     -2.91127   -0.75360   -2.29921
C     -2.53272   -1.66454   -1.30705
C     -5.96154    0.28059   -3.03053
C     -6.43266    2.04340   -4.55947
C     -3.94019   -2.84427   -2.61978
C     -7.30609    2.42721   -3.36260
C     -4.07557   -1.36605   -3.04309
N     -5.50459    1.01987   -4.04624
N     -5.37663   -0.81193   -2.56630
O     -3.25563   -2.83461   -1.35015
S     -7.46787    0.87732   -2.36966
H     -0.76506    1.75315   -1.52802
H     -0.12898    0.12752    0.22499
H     -2.56037    1.21333   -3.15576
H     -1.25554   -2.10004    0.38102
H     -7.02929    1.62442   -5.37620
H     -5.86603    2.89998   -4.92888
H     -4.89192   -3.36473   -2.49938
H     -3.32202   -3.37483   -3.35076
H     -6.83995    3.18927   -2.73633
H     -8.30126    2.75129   -3.66576
H     -4.05272   -1.27035   -4.13122
H     -4.67045    0.76243   -4.56174
H     -5.71183   -1.16946   -1.67562
