23

C      2.00333   -0.74681   -0.41290
C      0.98735   -0.15163    0.33259
C      3.16064   -1.26167    1.65378
C      3.09395   -1.31259    0.26149
C      1.05278   -0.10406    1.73058
C      2.15629   -0.64765    2.42249
C      1.46041   -1.91644    4.50308
C      2.25614   -0.66353    3.91743
C      4.21048   -1.96045   -0.49324
C     -0.06933    0.52449    2.51751
O      2.17068   -2.91074    4.77703
O      0.21338   -1.74472    4.59589
F      5.01856   -1.01663   -1.12078
F      3.74288   -2.77403   -1.51059
F     -1.21440    0.63681    1.74415
F      0.26775    1.83543    2.86933
H      1.94516   -0.79146   -1.49660
H      0.12049    0.26714   -0.16893
H      3.99744   -1.72045    2.17605
H      3.30353   -0.75128    4.21448
H      1.84409    0.25188    4.34880
H      4.86341   -2.56768    0.13930
H     -0.31080   -0.03292    3.42604
