29

C     -1.05457    1.07318   -4.43711
C     -1.11047    0.79552   -3.06652
C      0.12141    0.90972   -5.15979
C      1.24271    0.17709   -3.12391
C      0.04320    0.34661   -2.40547
C      1.27172    0.45630   -4.49325
C      0.90683   -0.63966   -0.27876
C     -0.70921    0.26882    1.23797
C     -1.18570    0.44991   -0.21033
C      0.34087   -0.83905    1.12926
C      3.58119   -0.15757   -4.63956
N     -0.01036    0.07982   -1.01544
N      1.41384   -0.77207    2.11531
O      1.99058   -1.08130   -0.64958
O      2.39134    0.31709   -5.26702
H     -1.95110    1.41931   -4.94471
H     -2.04737    0.91951   -2.53711
H      0.17455    1.12069   -6.22332
H      2.11657   -0.17589   -2.59985
H     -0.21254    1.17626    1.59267
H     -1.53320    0.03281    1.91603
H     -2.03214   -0.20660   -0.45012
H     -1.48072    1.47942   -0.42739
H     -0.16378   -1.82219    1.10012
H      4.33191   -0.20980   -5.42931
H      3.43436   -1.15397   -4.20653
H      3.92182    0.53105   -3.85708
H      2.23899   -1.21897    1.71344
H      1.16116   -1.29405    2.95092
