27   
Generated by ForceBalance from scan.xyz: Frame 1 of 24
C       -0.0119601358   -7.7537386658    0.9742274038
C       -1.0760676709   -6.9924015504    1.4677487274
C        1.2554084815   -7.1787870192    0.8119506517
C       -0.8811347923   -5.6477067165    1.7994985307
C        1.4621736413   -5.8381125176    1.1404103923
C        0.3857848552   -5.0905143559    1.6254981427
C        0.6377744870   -0.5322693516   -0.4223282366
C        0.0411797075   -1.5940932975   -1.3575859137
C        1.5348792538   -1.3482049866    0.5190909710
C       -0.2388364664   -2.7572672016   -0.4022186216
N        0.9267533899   -2.7203877557    0.5217768512
O       -0.5983150017   -2.8639213178    2.6440690180
O        1.9118190001   -3.2208946867    2.7897644744
S        0.6525447061   -3.3695460095    2.0537666875
H       -0.1677000278   -8.7984827784    0.7183264502
H       -2.0559015727   -7.4434515249    1.5981897308
H        2.0809984322   -7.7756022962    0.4341204857
H       -1.6868322229   -5.0345605981    2.1904944353
H        2.4372777856   -5.3744691518    1.0283617029
H        1.1946318627    0.2467831809   -0.9498630364
H       -0.1623171706   -0.0511513760    0.1498500145
H       -0.8648538734   -1.2608807643   -1.8706129450
H        0.7732425554   -1.8951174596   -2.1147084677
H        2.5579070906   -1.4327642644    0.1418535309
H        1.5843151967   -0.9281130891    1.5254960936
H       -1.1779567281   -2.5895612258    0.1396540649
H       -0.2863585560   -3.7291231251   -0.8997910545
27   
Generated by ForceBalance from scan.xyz: Frame 2 of 24
C        0.1048897819   -7.7704975691    0.9675805332
C       -1.0130388060   -7.0633257308    1.4197039009
C        1.3452057384   -7.1298053959    0.8441948298
C       -0.8999218300   -5.7082121744    1.7492195401
C        1.4693935947   -5.7784749206    1.1690278399
C        0.3405635637   -5.0851693560    1.6144846517
C        0.7795535362   -0.5227391437   -0.5099814536
C       -0.0216468425   -1.5057566432   -1.3778116249
C        1.5787587323   -1.4376906165    0.4298119636
C       -0.4369702044   -2.5823765632   -0.3700542222
N        0.7496166651   -2.6790128508    0.5143982770
O       -0.7810015126   -2.9182457660    2.6089269820
O        1.7503093642   -3.1378781927    2.7754810664
S        0.5028595091   -3.3475342624    2.0334340138
H        0.0131685432   -8.8233892453    0.7141226470
H       -1.9718805473   -7.5642760063    1.5208950107
H        2.2136081829   -7.6842934293    0.4991864492
H       -1.7491255265   -5.1379436543    2.1119662142
H        2.4229658761   -5.2660719001    1.0873912967
H        1.4281527938    0.1376370432   -1.0917952558
H        0.0934401696    0.1008759743    0.0728248043
H       -0.8862249723   -1.0472043570   -1.8649053053
H        0.6177646483   -1.9413091189   -2.1531531397
H        2.5548094313   -1.7018486205    0.0112128955
H        1.7446629451   -0.9980664043    1.4143797876
H       -1.3224597953   -2.2683896919    0.1956711175
H       -0.6396620508   -3.5532858314   -0.8308886212
27   
Generated by ForceBalance from scan.xyz: Frame 3 of 24
C        0.2087431759   -7.7866338586    0.9368163097
C       -0.9643372127   -7.0763475385    1.2096443284
C        1.4545663515   -7.1513586217    1.0208973861
C       -0.8997203670   -5.7246900847    1.5640080505
C        1.5310326926   -5.8016943130    1.3687825476
C        0.3486690208   -5.1046526900    1.6312629599
C        0.8550138695   -0.5669374938   -0.5617397056
C       -0.1702748549   -1.4273748136   -1.3176498992
C        1.6047601406   -1.5828463971    0.3125263851
C       -0.6355007775   -2.4245656470   -0.2498729819
N        0.5968221298   -2.6567698163    0.5364823149
O       -0.8413316595   -2.9919880680    2.6518131371
O        1.7096341530   -3.1143459403    2.7460396743
S        0.4449287407   -3.3600967551    2.0451815209
H        0.1548447892   -8.8378567911    0.6662273394
H       -1.9288747188   -7.5738054892    1.1559220307
H        2.3653997319   -7.7090478531    0.8207840341
H       -1.7947887496   -5.1589344548    1.8023988123
H        2.4874720656   -5.2948924248    1.4522735123
H        1.5287241368   -0.0176582079   -1.2248897008
H        0.3359882782    0.1582890647    0.0739968996
H       -1.0030938557   -0.8489611959   -1.7261201491
H        0.3147139235   -1.9589987440   -2.1434009314
H        2.4682007198   -2.0082824162   -0.2103699824
H        1.9534900326   -1.1640872688    1.2569540170
H       -1.4238392551   -1.9968521136    0.3799178593
H       -0.9981829820   -3.3667899498   -0.6722852942
27   
Generated by ForceBalance from scan.xyz: Frame 4 of 24
C        0.3022708396   -7.7543182522    0.8934030626
C       -0.9035067131   -7.0815470518    1.1157803304
C        1.5228836208   -7.0884169917    1.0616180272
C       -0.8967683743   -5.7372579802    1.5013224733
C        1.5420382777   -5.7451516606    1.4423422200
C        0.3283417288   -5.0847631862    1.6517676584
C        0.9405092190   -0.6393533289   -0.6270445607
C       -0.2227198358   -1.3928910791   -1.2932649309
C        1.6042048540   -1.7088680528    0.2521337372
C       -0.7549540448   -2.2887913756   -0.1660383380
N        0.4681854401   -2.5936142983    0.6049424462
O       -0.9591626818   -3.0326142086    2.6693436281
O        1.5997889989   -3.0639250984    2.7985017794
S        0.3501971887   -3.3404337813    2.0827930990
H        0.2925632886   -8.8002475202    0.5982673387
H       -1.8493119832   -7.6036290741    0.9988725367
H        2.4588025204   -7.6172332199    0.9029125796
H       -1.8197192306   -5.2029474765    1.7031699384
H        2.4781610216   -5.2166952939    1.5943131124
H        1.6391975774   -0.2038529930   -1.3464281373
H        0.5513788168    0.1671068680    0.0035930219
H       -0.9971385718   -0.7299540300   -1.6878692723
H        0.1505669858   -2.0099227908   -2.1176614711
H        2.3571284519   -2.2778620448   -0.3067774697
H        2.0750070797   -1.3035008492    1.1480660965
H       -1.4852065518   -1.7653397161    0.4602253798
H       -1.2146580530   -3.2097037680   -0.5394270791
27   
Generated by ForceBalance from scan.xyz: Frame 5 of 24
C        0.3279630921   -7.6341531571    0.7406516076
C       -0.8909873907   -7.0098361969    1.0245006529
C        1.5338249374   -6.9541638977    0.9528099701
C       -0.9121124805   -5.7002797688    1.5148388710
C        1.5254115099   -5.6450809561    1.4389975991
C        0.2985065337   -5.0308833524    1.7087515281
C        0.9643266979   -0.8010450017   -0.6776584993
C       -0.2212675043   -1.5925698869   -1.2571287988
C        1.5561994988   -1.7579575541    0.3658187160
C       -0.8153717440   -2.3142856417   -0.0351522968
N        0.3518890893   -2.4540647247    0.8531785408
O       -1.0277246796   -3.0866635431    2.8648318038
O        1.5367240442   -3.0523569505    2.9675187965
S        0.2843461964   -3.3175830982    2.2545093739
H        0.3401600927   -8.6537164086    0.3644889577
H       -1.8255216828   -7.5436090197    0.8742635983
H        2.4803619323   -7.4468692357    0.7475589391
H       -1.8454035718   -5.2065299995    1.7662205207
H        2.4507245700   -5.1099195463    1.6295029701
H        1.6971580114   -0.5120668713   -1.4357004559
H        0.6063079874    0.1068280514   -0.1812467103
H       -0.9580246761   -0.9590454903   -1.7574823796
H        0.1410293430   -2.3288157309   -1.9825332931
H        2.2590223964   -2.4648648356   -0.0969261125
H        2.0644537662   -1.2511035154    1.1865646123
H       -1.5974303141   -1.7271396033    0.4571742510
H       -1.2326242260   -3.2930425890   -0.2975446857
27   
Generated by ForceBalance from scan.xyz: Frame 6 of 24
C        0.3548624502   -7.4850325761    0.6034717310
C       -0.8725360418   -6.9070809245    0.9448265678
C        1.5494119359   -6.7953790312    0.8439565996
C       -0.9139422476   -5.6330296538    1.5191641204
C        1.5205798858   -5.5214840423    1.4161991193
C        0.2853605917   -4.9504075907    1.7402948430
C        1.0267358436   -0.9891123961   -0.7217799228
C       -0.2070928633   -1.7706535581   -1.2058935324
C        1.5357757643   -1.8326859615    0.4519941533
C       -0.8551571388   -2.2893606589    0.0913688174
N        0.2721695320   -2.3051436698    1.0477559923
O       -1.0636705514   -3.1000322898    3.0220036700
O        1.5019322810   -3.0263893356    3.0990242552
S        0.2450390718   -3.2732761188    2.3888834800
H        0.3821440328   -8.4774972978    0.1614397105
H       -1.7977606499   -7.4506929417    0.7737745265
H        2.5029810210   -7.2536824719    0.5959838976
H       -1.8534510046   -5.1778892839    1.8161776659
H        2.4379155127   -4.9838534821    1.6353528472
H        1.7854901254   -0.8620522675   -1.4984248958
H        0.7328748171    0.0022067528   -0.3618728548
H       -0.8976396377   -1.1616253311   -1.7946909153
H        0.1093384036   -2.6163828478   -1.8255094588
H        2.1505918277   -2.6711461690    0.0924518787
H        2.1107803497   -1.2689540844    1.1867783204
H       -1.6416591342   -1.6266423715    0.4638565712
H       -1.2843617025   -3.2883629127   -0.0418908102
27   
Generated by ForceBalance from scan.xyz: Frame 7 of 24
C        0.4430147816   -7.3800749907    0.5523931539
C       -0.8074308769   -6.8215606348    0.8393263326
C        1.6150870879   -6.6879849880    0.8787423408
C       -0.8928355149   -5.5633847640    1.4420087432
C        1.5420076966   -5.4295678548    1.4813834914
C        0.2854737033   -4.8752001987    1.7475647930
C        1.0591766215   -1.1407122137   -0.7912200898
C       -0.2860273071   -1.7843894478   -1.1700305986
C        1.5100978737   -1.9752239511    0.4103474788
C       -0.9224492865   -2.1585938677    0.1826001387
N        0.2323497460   -2.2009056329    1.1153332658
O       -1.1433756409   -3.0690703658    3.0263479380
O        1.4180741416   -2.9701575111    3.1849674261
S        0.1863597508   -3.2154360355    2.4326034487
H        0.5046353953   -8.3605133026    0.0875917001
H       -1.7162458227   -7.3691202913    0.6047314897
H        2.5855790630   -7.1321881053    0.6746984472
H       -1.8523826597   -5.1273514834    1.7011759360
H        2.4400366710   -4.8931080140    1.7708798924
H        1.7884312118   -1.1614089082   -1.6053354300
H        0.9144724459   -0.1000595442   -0.4839073523
H       -0.9283136471   -1.1225807681   -1.7564154583
H       -0.1087721683   -2.6897889900   -1.7598121925
H        1.9606932111   -2.9211717814    0.0739622226
H        2.2131703206   -1.4654678528    1.0696048851
H       -1.6368493968   -1.4109444393    0.5361746832
H       -1.4390010758   -3.1223390901    0.1307239384
27   
Generated by ForceBalance from scan.xyz: Frame 8 of 24
C        0.5706845009   -7.3515744224    0.5253221890
C       -0.7001638361   -6.7934512765    0.7043794295
C        1.7084975760   -6.6680087309    0.9686304839
C       -0.8379162611   -5.5445962182    1.3158618101
C        1.5833152268   -5.4182866003    1.5813432593
C        0.3088807631   -4.8649629257    1.7392595822
C        1.0617823155   -1.2900858736   -0.8488529104
C       -0.3856390194   -1.7386098111   -1.1123662709
C        1.4697905780   -2.1619049335    0.3398322517
C       -0.9649994459   -1.9946683483    0.2919271332
N        0.2376848767   -2.1616017151    1.1584129250
O       -1.2154393193   -3.0937914250    2.9838960573
O        1.3341033880   -2.9875631428    3.2654388169
S        0.1413376521   -3.2204771872    2.4493519748
H        0.6731631618   -8.3249738177    0.0529959547
H       -1.5844525075   -7.3349786273    0.3795322109
H        2.6930788623   -7.1111619134    0.8463832360
H       -1.8173666049   -5.1121919382    1.4941163102
H        2.4513582436   -4.8855510754    1.9563592938
H        1.7196522620   -1.4331154210   -1.7101482802
H        1.0926394202   -0.2342145340   -0.5617459658
H       -0.9688693279   -1.0002082112   -1.6682292754
H       -0.3835439177   -2.6687605544   -1.6901558673
H        1.7313591125   -3.1740404767   -0.0016994043
H        2.3004141451   -1.7604330018    0.9224319930
H       -1.5487952701   -1.1512868741    0.6679223251
H       -1.6076933898   -2.8791424803    0.3108785015
27   
Generated by ForceBalance from scan.xyz: Frame 9 of 24
C        0.8236798758   -7.3235245012    0.5376446575
C       -0.4481474863   -6.7385432836    0.5384802650
C        1.9053726929   -6.6601713179    1.1272405420
C       -0.6407285647   -5.4840533105    1.1221079273
C        1.7252809855   -5.4039703727    1.7130712105
C        0.4527757053   -4.8281619885    1.6963256583
C        1.0183388788   -1.4042194834   -1.0262684427
C       -0.5011427901   -1.6274189917   -1.0927317510
C        1.4343428629   -2.3104458487    0.1332247443
C       -0.9247682724   -1.7368768940    0.3819264088
N        0.3298900848   -2.1160815021    1.1014074227
O       -1.1584186772   -3.0812928305    2.8936752471
O        1.3747845684   -2.9375414909    3.2498794044
S        0.2140295853   -3.1842888466    2.3924094869
H        0.9690543546   -8.3013875203    0.0862962537
H       -1.2905470514   -7.2631414843    0.0959196602
H        2.8886482931   -7.1224708916    1.1376394998
H       -1.6261585926   -5.0297881095    1.1585470185
H        2.5461657484   -4.8769589132    2.1887359854
H        1.5341686643   -1.6638861134   -1.9545138895
H        1.2448044359   -0.3606934674   -0.7849529037
H       -1.0307800841   -0.8254630700   -1.6132929927
H       -0.7133619497   -2.5660952421   -1.6157727743
H        1.5005705181   -3.3537185794   -0.2044600913
H        2.3845736297   -2.0302170039    0.5929286148
H       -1.2746022710   -0.7822845287    0.7836122550
H       -1.7192482248   -2.4693173362    0.5387731857
27   
Generated by ForceBalance from scan.xyz: Frame 10 of 24
C        0.9519652343   -7.3747867239    0.6068702433
C       -0.3172433631   -6.8004797048    0.4673065777
C        1.9601515825   -6.6974412910    1.3015241668
C       -0.5794618804   -5.5429863613    1.0161741903
C        1.7085902667   -5.4385786914    1.8545930162
C        0.4412681429   -4.8747033438    1.6982695265
C        0.9530366272   -1.4810285195   -1.0740530835
C       -0.5813445863   -1.4119959934   -1.0147007922
C        1.2764363350   -2.5185174620    0.0017129089
C       -0.9014390175   -1.5296558270    0.4855231255
N        0.3135774312   -2.1728268769    1.0723649983
O       -1.2978093495   -3.1545937406    2.7663003535
O        1.1867425216   -2.9737682181    3.3253824528
S        0.1112195643   -3.2361037682    2.3667481754
H        1.1522188659   -8.3544151886    0.1810870682
H       -1.1031635283   -7.3345329704   -0.0597467345
H        2.9405096924   -7.1509357722    1.4193031128
H       -1.5642421478   -5.0920176525    0.9375665451
H        2.4702936572   -4.8989000944    2.4080878795
H        1.3354480797   -1.7761172577   -2.0549201981
H        1.3933477271   -0.5152096324   -0.8063058625
H       -0.9866608513   -0.4948218555   -1.4496336652
H       -1.0102356443   -2.2600210751   -1.5595443578
H        1.1127412087   -3.5329089132   -0.3858131609
H        2.2999495330   -2.4515295700    0.3791893942
H       -1.0327013459   -0.5504516723    0.9545602442
H       -1.8009026278   -2.1151541882    0.6851705795
27   
Generated by ForceBalance from scan.xyz: Frame 11 of 24
C        1.1511012018   -7.3937876972    0.6795172864
C       -0.1424086905   -6.8918177982    0.4930948493
C        2.1047787364   -6.6460938920    1.3794155974
C       -0.4841038886   -5.6347264386    0.9977048494
C        1.7731936024   -5.3883121417    1.8905208959
C        0.4832328633   -4.8964849729    1.6842586394
C        0.9170472995   -1.5194353024   -1.1352784549
C       -0.5670457475   -1.1788883442   -0.9283756614
C        1.1361585556   -2.6640082856   -0.1442432677
C       -0.7723382025   -1.3242172662    0.5892802357
N        0.3375566954   -2.2226882199    1.0212099181
O       -1.3914138762   -3.2362610502    2.6034440997
O        1.0160420654   -2.9700624551    3.3767111190
S        0.0496084652   -3.2714057691    2.3178736682
H        1.4129730288   -8.3727972577    0.2870212708
H       -0.8854708052   -7.4809265383   -0.0373839473
H        3.1033915477   -7.0448220569    1.5354574379
H       -1.4870449497   -5.2349798303    0.8816437071
H        2.4895096457   -4.7975278685    2.4526908330
H        1.1554787656   -1.8160540554   -2.1603656264
H        1.5483350289   -0.6668007662   -0.8651169326
H       -0.8315728894   -0.1799335946   -1.2844695170
H       -1.1913292373   -1.9026404462   -1.4635346370
H        0.7690061019   -3.6100255123   -0.5642032627
H        2.1841251868   -2.7958295255    0.1369052338
H       -0.6689445098   -0.3665775717    1.1087122084
H       -1.7454081163   -1.7461471014    0.8487582141
27   
Generated by ForceBalance from scan.xyz: Frame 12 of 24
C        1.2363634383   -7.4205925126    0.7451628680
C       -0.0719861011   -6.9909416728    0.4941221671
C        2.1208398193   -6.6101705897    1.4662592899
C       -0.4984609105   -5.7423033390    0.9535578348
C        1.7047776099   -5.3607665632    1.9333962294
C        0.4015822439   -4.9410657909    1.6596825218
C        0.8279051848   -1.5501480846   -1.1620986693
C       -0.5581150178   -0.9781655337   -0.8270226763
C        0.9126013872   -2.7812626321   -0.2561519316
C       -0.6826355677   -1.1827345138    0.6925497676
N        0.2644108447   -2.2948958979    0.9818894687
O       -1.6061075840   -3.3556464929    2.3872622986
O        0.6805812126   -2.9946132198    3.4173175161
S       -0.1406302906   -3.3362444775    2.2526258583
H        1.5637786787   -8.3931913318    0.3874200757
H       -0.7611515701   -7.6294230556   -0.0517074140
H        3.1304269149   -6.9541341157    1.6733803214
H       -1.5140444440   -5.3955391702    0.7887536382
H        2.3650421564   -4.7236236860    2.5136401275
H        0.9461799327   -1.8117238582   -2.2172099996
H        1.6127554917   -0.8361414597   -0.8920714416
H       -0.6707153795    0.0710423668   -1.1118974465
H       -1.3322011819   -1.5533865738   -1.3462885563
H        0.3742207661   -3.6264576329   -0.7060696843
H        1.9395424191   -3.0960043850   -0.0568295828
H       -0.3695362955   -0.2955704004    1.2521777077
H       -1.6984632106   -1.4434444745    0.9989346620
27   
Generated by ForceBalance from scan.xyz: Frame 13 of 24
C       -3.6707620565   -2.3728913965    2.3243271510
C       -4.4404697518   -1.2122994000    2.1861631004
C       -2.3012166526   -2.2836486112    2.6003077470
C       -3.8441873561    0.0450080014    2.3153734762
C       -1.6941026016   -1.0320012923    2.7289866174
C       -2.4749004499    0.1165907796    2.5769247965
C       -0.6319618957    1.7335634999   -1.1002586482
C        0.7090050820    1.8309630194   -0.3565875301
C       -1.5905242632    1.2811170696    0.0029832935
C        0.3272803056    2.4101120186    1.0158887629
N       -1.1153069075    2.0611413246    1.1682873890
O       -2.7598008640    2.6792771323    3.0343516767
O       -0.5248566667    1.6139322173    3.6116828788
S       -1.6905173322    1.7271151500    2.7242030902
H       -4.1402058530   -3.3481384450    2.2263235971
H       -5.5060876269   -1.2850596023    1.9868675702
H       -1.7088526908   -3.1863077627    2.7224135776
H       -4.4234283368    0.9590878615    2.2312337034
H       -0.6374995001   -0.9399177949    2.9619969509
H       -0.9344188310    2.7158957309   -1.4772572443
H       -0.6140705801    1.0314233781   -1.9382934820
H        1.1390577259    0.8306159363   -0.2362190088
H        1.4439946598    2.4521815901   -0.8748603988
H       -2.6364813554    1.5134910201   -0.2131472303
H       -1.5031273532    0.1986801820    0.1655179771
H        0.9213942821    1.9973134713    1.8335597280
H        0.4274152998    3.4996895519    1.0403294006
27   
Generated by ForceBalance from scan.xyz: Frame 14 of 24
C       -3.5419264544   -2.3904604486    2.3050276531
C       -4.3834599949   -1.2863412319    2.1305606791
C       -2.1866505624   -2.2028402035    2.6021148759
C       -3.8741804099    0.0104874573    2.2445690803
C       -1.6681185451   -0.9108924630    2.7181017270
C       -2.5188677930    0.1821553707    2.5310222478
C       -0.6891576319    1.7891743298   -1.1432886495
C        0.6248887677    1.5907436547   -0.3715863802
C       -1.7436403370    1.5098777255   -0.0713776639
C        0.3337570828    2.1948010100    1.0122243709
N       -1.1558396537    2.1519083302    1.1271250174
O       -2.9877412162    2.7370449353    2.7950123386
O       -0.7367026348    1.8506691052    3.6100098433
S       -1.8369464185    1.8447847311    2.6398079578
H       -3.9430305763   -3.3967514965    2.2179479687
H       -5.4377073485   -1.4334154485    1.9124443709
H       -1.5371585514   -3.0609673747    2.7519403048
H       -4.5099476280    0.8819159052    2.1256028145
H       -0.6245611225   -0.7473252387    2.9701298616
H       -0.7771511520    2.8223690432   -1.4944403306
H       -0.7929713641    1.1212994930   -2.0026713884
H        0.8401327190    0.5206217372   -0.2783514201
H        1.4831522391    2.0651038179   -0.8543691361
H       -2.7194231402    1.9488964164   -0.2944379140
H       -1.8707603895    0.4277002457    0.0642484961
H        0.8135583602    1.6500224168    1.8273153018
H        0.6536711069    3.2387910401    1.0774627614
27   
Generated by ForceBalance from scan.xyz: Frame 15 of 24
C       -3.3513262443   -2.4246066846    2.3204675615
C       -4.2303991090   -1.3693529951    2.0534356714
C       -2.0334066447   -2.1618983981    2.7127352954
C       -3.7951052474   -0.0459538524    2.1675363981
C       -1.5884200650   -0.8430041975    2.8313370270
C       -2.4744398966    0.2014361411    2.5491018023
C       -0.7337458319    1.8968149642   -1.1231781560
C        0.5054630493    1.3855716457   -0.3712058913
C       -1.8324705759    1.7807019255   -0.0655980139
C        0.3324388023    1.9478663522    1.0494995564
N       -1.1350144591    2.2093387299    1.1697160240
O       -3.0756075327    2.7416430231    2.6971788145
O       -0.8298356860    1.9733316459    3.6622707077
S       -1.8796141081    1.8989831029    2.6433894806
H       -3.6955424099   -3.4517188101    2.2331368092
H       -5.2569429037   -1.5749421014    1.7625390204
H       -1.3569784291   -2.9821576368    2.9370866474
H       -4.4630234608    0.7883791661    1.9789521830
H       -0.5787958423   -0.6221667977    3.1638669060
H       -0.6032937846    2.9441968336   -1.4138958552
H       -0.9656935356    1.3160052065   -2.0198466534
H        0.4962979365    0.2905177073   -0.3464622045
H        1.4465370325    1.7039491145   -0.8269667529
H       -2.6922048100    2.4284669197   -0.2501602457
H       -2.1830638483    0.7420860742    0.0050383842
H        0.6861176847    1.2620504677    1.8218236246
H        0.8607834810    2.8953166377    1.1851968061
27   
Generated by ForceBalance from scan.xyz: Frame 16 of 24
C       -3.1347473805   -2.5046990841    2.4688739758
C       -4.0062149875   -1.4924391155    2.0513816603
C       -1.8831633777   -2.1804400829    3.0046174962
C       -3.6261439474   -0.1516973185    2.1553677348
C       -1.4923879811   -0.8433075217    3.1136825058
C       -2.3664474547    0.1577794196    2.6775620644
C       -0.8056504503    2.0917550025   -1.0520994242
C        0.3682413518    1.3153341783   -0.4313865880
C       -1.8811803874    1.9939410051    0.0309404394
C        0.3020471248    1.6591713421    1.0691961170
N       -1.0874593912    2.1632433967    1.2674775801
O       -3.0439341249    2.6955631948    2.7544224518
O       -0.7876670314    1.9902492388    3.7554657255
S       -1.8319854000    1.8746038391    2.7364359690
H       -3.4364384062   -3.5457391853    2.3894803599
H       -4.9852769682   -1.7451458985    1.6534797418
H       -1.2165888240   -2.9666518299    3.3485713224
H       -4.2982975506    0.6484978038    1.8623870472
H       -0.5402797632   -0.5715577964    3.5583577707
H       -0.5347326335    3.1402389942   -1.2115305746
H       -1.1408592667    1.6730813840   -2.0046967022
H        0.2156163278    0.2405683463   -0.5745448153
H        1.3344931480    1.5774492944   -0.8695522032
H       -2.6439168584    2.7720067760   -0.0273314311
H       -2.3724044319    1.0106293309   -0.0062338215
H        0.5129199470    0.7866628281    1.6939340640
H        1.0014988051    2.4486492701    1.3534237249
27   
Generated by ForceBalance from scan.xyz: Frame 17 of 24
C       -3.0255397789   -2.5578087695    2.5506899419
C       -3.8901602006   -1.5915116864    2.0236067524
C       -1.8285405688   -2.1723420079    3.1643903044
C       -3.5560825107   -0.2367587270    2.0959675160
C       -1.4835048350   -0.8202777069    3.2429783330
C       -2.3484627923    0.1334795271    2.6972461047
C       -0.7647691934    2.2331434874   -1.0517078491
C        0.2805143305    1.2500823785   -0.4967075407
C       -1.8694254929    2.1893405860    0.0071698721
C        0.2403620202    1.4745856360    1.0272318571
N       -1.0854091319    2.1033449472    1.2558046763
O       -3.0924372875    2.6674216149    2.6463653075
O       -0.8637809459    2.0349863757    3.7550438127
S       -1.8683582964    1.8664242762    2.7040870192
H       -3.2915278092   -3.6101004596    2.4956948940
H       -4.8292993434   -1.8911201571    1.5663891459
H       -1.1685441034   -2.9222724432    3.5919424811
H       -4.2287524054    0.5283062022    1.7214361653
H       -0.5756158854   -0.4990530172    3.7435893373
H       -0.3489219568    3.2441787711   -1.1089895766
H       -1.1315938113    1.9546845121   -2.0431180322
H       -0.0194804394    0.2227512742   -0.7283212861
H        1.2802960462    1.4086742435   -0.9086016822
H       -2.5043233949    3.0754927595    0.0272541660
H       -2.5036790690    1.3014438853   -0.1354863833
H        0.3438326076    0.5326170315    1.5750870007
H        1.0208981005    2.1555638637    1.3757501841
27   
Generated by ForceBalance from scan.xyz: Frame 18 of 24
C       -3.0027545127   -2.6228255513    2.6852114079
C       -3.8518723820   -1.6966392910    2.0674330698
C       -1.8400490943   -2.1900310085    3.3315772634
C       -3.5362534283   -0.3360764021    2.0843050847
C       -1.5142188608   -0.8305804550    3.3558264184
C       -2.3637224101    0.0810940945    2.7231470169
C       -0.6991885365    2.4028050685   -1.0378777606
C        0.2359185262    1.2716789226   -0.5747375469
C       -1.8457851243    2.3470314426   -0.0224150805
C        0.1687651024    1.3329350393    0.9630507146
N       -1.1263762955    1.9991195947    1.2165413410
O       -3.1391659132    2.6119474714    2.5634670687
O       -0.9213419148    2.0328720013    3.7205810229
S       -1.9107429028    1.8208278881    2.6622604722
H       -3.2541325587   -3.6800746086    2.6727930207
H       -4.7643829782   -2.0325534685    1.5823479177
H       -1.1909593161   -2.9080557432    3.8254831293
H       -4.1973005852    0.3987013514    1.6351580836
H       -0.6309728321   -0.4706332330    3.8738341059
H       -0.1917608911    3.3702526513   -0.9664866979
H       -1.0508779673    2.2738757069   -2.0648704773
H       -0.1472873373    0.3071142432   -0.9240273399
H        1.2581501845    1.3816015905   -0.9454182036
H       -2.3744517913    3.2921941224    0.1019827956
H       -2.5741675991    1.5700968827   -0.2984360738
H        0.2015561161    0.3330479592    1.4094367188
H        0.9772549947    1.9277694586    1.3976325315
27   
Generated by ForceBalance from scan.xyz: Frame 19 of 24
C       -3.1195448185   -2.6900809211    2.9666150680
C       -3.9827962752   -1.7857542112    2.3353733028
C       -1.9311805282   -2.2386088274    3.5498811330
C       -3.6569871928   -0.4291438829    2.2755332057
C       -1.5955698601   -0.8819378237    3.4989865032
C       -2.4606672449    0.0055106217    2.8545360779
C       -0.6803531003    2.6298711462   -0.8815973883
C        0.2475658602    1.4551336346   -0.5252627836
C       -1.8955244867    2.4145718800    0.0303686637
C        0.0876599534    1.3074526690    0.9978429752
N       -1.2713559818    1.8281145655    1.2298617474
O       -3.2290774618    2.5320753842    2.6093760522
O       -0.9836342394    1.9891814443    3.7280840490
S       -2.0013222411    1.7376497676    2.7039150631
H       -3.3792830303   -3.7443946071    3.0125392441
H       -4.9135689920   -2.1362474215    1.8976067135
H       -1.2695521761   -2.9387512636    4.0527660637
H       -4.3239556870    0.2894922523    1.8090689878
H       -0.6913527533   -0.5059844421    3.9671015628
H       -0.1986188768    3.5808894976   -0.6318874616
H       -0.9563148523    2.6517490061   -1.9391951467
H       -0.0964002799    0.5430646524   -1.0245693506
H        1.2878027447    1.6265144536   -0.8134829419
H       -2.4220511143    3.3352084918    0.2833528465
H       -2.6126654958    1.7151529981   -0.4216511123
H        0.1719149756    0.2639098305    1.3215697567
H        0.8202206087    1.9011353610    1.5542607530
27   
Generated by ForceBalance from scan.xyz: Frame 20 of 24
C       -3.2106027391   -2.7458268817    3.1560164488
C       -4.0820047969   -1.8756165463    2.4889457283
C       -1.9971412612   -2.2743197287    3.6671344052
C       -3.7384101232   -0.5327205809    2.3211032724
C       -1.6435927416   -0.9305889812    3.5089541711
C       -2.5180910617   -0.0799496116    2.8299356129
C       -0.6428830453    2.7899309853   -0.8547336015
C        0.3173460181    1.6186335687   -0.5887014008
C       -1.9094363913    2.3985261115   -0.0802446067
C        0.0641541015    1.2826392578    0.8876071880
N       -1.3702807165    1.6001813519    1.0466252628
O       -3.2731465392    2.4315625099    2.4611743870
O       -1.0027286283    1.9441205251    3.5445252956
S       -2.0473214439    1.6332960526    2.5618795642
H       -3.4831251529   -3.7899429353    3.2852603321
H       -5.0308909302   -2.2414152383    2.1060819777
H       -1.3293581679   -2.9482132183    4.1969598693
H       -4.4075417977    0.1615106625    1.8220560074
H       -0.7187086854   -0.5373201821    3.9188758212
H       -0.2282109944    3.7149777582   -0.4401750802
H       -0.8415548663    2.9506860836   -1.9177549267
H        0.0520357419    0.7627901190   -1.2186511379
H        1.3649816015    1.8677917807   -0.7766141537
H       -2.4767863150    3.2547389109    0.2853949300
H       -2.5765554257    1.7762954845   -0.6891896048
H        0.2537720639    0.2296231879    1.1200253354
H        0.6723605643    1.9008485153    1.5564300030
27   
Generated by ForceBalance from scan.xyz: Frame 21 of 24
C       -3.1421271771   -2.7525316707    3.2362910598
C       -4.0128003148   -1.9384456310    2.5001273706
C       -1.9574414554   -2.2254778823    3.7595320380
C       -3.6972558374   -0.5971951890    2.2767874874
C       -1.6330484084   -0.8815793804    3.5463072938
C       -2.5059600706   -0.0881743346    2.8006931648
C       -0.5310328767    2.8670424090   -0.8071027448
C        0.2914049572    1.5787473762   -0.6427749821
C       -1.8490010811    2.5496250472   -0.0852059215
C       -0.0307867717    1.1468697437    0.7925618869
N       -1.4482680022    1.5464291451    0.9406628232
O       -3.3244257432    2.4040071099    2.3804650994
O       -1.0380204161    1.9970905396    3.4473377326
S       -2.0841044525    1.6282358293    2.4841465003
H       -3.3928042964   -3.7960335350    3.4079198300
H       -4.9388692460   -2.3475352879    2.1055091330
H       -1.2893745433   -2.8553846714    4.3405531807
H       -4.3649343389    0.0533009141    1.7203121881
H       -0.7304990082   -0.4444822476    3.9615305037
H       -0.0242559444    3.6986700153   -0.3060429138
H       -0.6906800265    3.1457313011   -1.8521783074
H       -0.0507087459    0.8163562090   -1.3508802039
H        1.3638477974    1.7279790315   -0.7931412352
H       -2.3094607223    3.4243893264    0.3749503742
H       -2.5819801038    2.0950889023   -0.7604923849
H        0.0773105001    0.0693486088    0.9507158051
H        0.5994971037    1.6723014882    1.5190526439
27   
Generated by ForceBalance from scan.xyz: Frame 22 of 24
C       -3.0566807764   -2.7713011344    3.2833017475
C       -3.8518573851   -2.0467016348    2.3850893074
C       -1.9836445859   -2.1540614402    3.9327852334
C       -3.5736116787   -0.7032847686    2.1304797785
C       -1.6958098748   -0.8072159675    3.6860764600
C       -2.4938046050   -0.1034559662    2.7843489776
C       -0.4706023608    2.9107299074   -0.7329127274
C        0.1540167542    1.5065686494   -0.7136771805
C       -1.8105166362    2.7251742570   -0.0038232350
C       -0.2146508973    0.9948263488    0.6818296364
N       -1.5804381708    1.5379780984    0.8761549828
O       -3.3927841877    2.3805939540    2.4026145912
O       -1.0686259606    2.0308334157    3.3826461618
S       -2.1372865611    1.6248181608    2.4569779393
H       -3.2783076871   -3.8172336833    3.4785971758
H       -4.6893662223   -2.5280769968    1.8876479358
H       -1.3729399209   -2.7161464815    4.6339774192
H       -4.1823905840   -0.1230150784    1.4440301676
H       -0.8753454637   -0.3003417196    4.1839448351
H        0.1643481837    3.6059905959   -0.1738254792
H       -0.6038333547    3.3096990595   -1.7420113132
H       -0.3038564444    0.8726365537   -1.4805500747
H        1.2352858910    1.5122610646   -0.8745119199
H       -2.1046704086    3.6030271041    0.5735739607
H       -2.6251424734    2.4901589089   -0.6954842657
H       -0.2326235210   -0.0962773574    0.7542687977
H        0.4754333711    1.3875193187    1.4385618906
27   
Generated by ForceBalance from scan.xyz: Frame 23 of 24
C       -2.9453196943   -2.7780921845    3.3266742321
C       -3.7882378317   -2.1184404408    2.4224320106
C       -1.9030364929   -2.0857395724    3.9507477286
C       -3.5903833299   -0.7667595180    2.1364638179
C       -1.6928591733   -0.7310530565    3.6729782286
C       -2.5387796969   -0.0942912820    2.7649262766
C       -0.3681266421    2.9157508605   -0.6064048056
C        0.0743654237    1.4476833886   -0.6986524855
C       -1.7539780743    2.8367999170    0.0520668839
C       -0.4236528778    0.8683782187    0.6274125187
N       -1.7375550767    1.5400010733    0.8076172266
O       -3.5724322755    2.3408451994    2.3411206836
O       -1.2300595538    2.1329036261    3.3027251257
S       -2.2843980634    1.6429154057    2.3993557658
H       -3.1050848136   -3.8304424704    3.5465285216
H       -4.6019430756   -2.6569368299    1.9445571491
H       -1.2549498332   -2.5971465706    4.6570797100
H       -4.2373195694   -0.2358088437    1.4450890190
H       -0.8968562177   -0.1682238972    4.1500921970
H        0.3206460294    3.4697530829    0.0397040127
H       -0.4022210664    3.4186322034   -1.5764868432
H       -0.4208894149    0.9478590695   -1.5380036735
H        1.1544972269    1.3275562091   -0.8167135040
H       -1.9535694938    3.6848509496    0.7103000787
H       -2.5597354818    2.7891540264   -0.6855643772
H       -0.5613020021   -0.2155278283    0.6065986855
H        0.2672793121    1.1234014105    1.4409536701
27   
Generated by ForceBalance from scan.xyz: Frame 24 of 24
C       -0.0758565757   -7.7532936967    0.2249062365
C       -1.0263392360   -7.0013445729    0.9230499606
C        1.2454437981   -7.3007309216    0.1161304909
C       -0.6634255165   -5.7861558030    1.5121468365
C        1.6209705043   -6.0913009998    0.7036687130
C        0.6552389737   -5.3482594648    1.3878309034
C        1.7577133813   -0.7837614776   -0.3139423305
C        0.6517398808   -1.5568330136   -1.0854147783
C        1.8305582202   -1.4647583482    1.0607705503
C        0.2225993740   -2.6964736491   -0.1407875991
N        1.4059562105   -2.8547388480    0.7429284869
O       -0.0234362545   -3.2894624737    2.8961323165
O        2.4347650944   -3.9243634343    2.7987877784
S        1.1341842598   -3.7920308772    2.1372842909
H       -0.3626275300   -8.6966949369   -0.2321985918
H       -2.0482241352   -7.3595935442    1.0117958910
H        1.9821763420   -7.8919678581   -0.4206385903
H       -1.3786592976   -5.1830527497    2.0623025347
H        2.6414477926   -5.7266438221    0.6403443240
H        2.7169757442   -0.8763669552   -0.8288286357
H        1.5348803756    0.2813721847   -0.2132159863
H       -0.2027699423   -0.9228528950   -1.3347525559
H        1.0460948369   -1.9618136640   -2.0202989939
H        2.8295860174   -1.4736501146    1.4978229094
H        1.1334984675   -0.9964848477    1.7692060315
H       -0.6640490881   -2.4114786500    0.4418372781
H        0.0157303049   -3.6332704640   -0.6610414948
