30   

C        7.4088334641   -5.7624291309    4.4739046734
C        8.5403202101   -9.0814132358    2.0715702418
C        8.9061202753   -8.8670707333    0.7451864341
C        7.5815116877   -8.2614130850    2.6706260737
C        5.8678730732   -6.0695140057    7.1907453757
C        8.3127243588   -7.8294900085    0.0253082825
C        6.7022352656   -6.2892516524    8.2907724579
C        7.2581298543   -3.9500653741    8.3285162574
C        6.9674112260   -7.2084930083    1.9602192076
C        5.7283192704   -4.7843860360    6.6408970534
C        7.4071050262   -5.2308071125    8.8678617958
C        7.3496048095   -6.9954237707    0.6098960142
C        6.4244769480   -3.7102801621    7.2291684785
C        6.1084805353   -5.8316144251    3.8837436596
C        5.9329487567   -6.3757122745    2.6157510687
N        8.4760678654   -5.7348441126    4.9419577809
N        4.8864567132   -4.5583738806    5.5591239289
N        4.9857174395   -5.1572834877    4.4173367396
O        4.7966623889   -6.1701124576    1.9578735073
Cl       8.4523922376   -5.5002195063   10.2399192395
Cl       6.7025933300   -5.6802640538   -0.3546647740
Cl       6.2827725101   -2.0821601923    6.5954395117
H        8.9974457494   -9.8847397491    2.6387207554
H        9.6509041002   -9.4998777813    0.2749062291
H        7.3026491330   -8.4573132088    3.7000000737
H        5.3229941631   -6.8983985990    6.7540385787
H        8.6044656176   -7.6549349296   -1.0038890373
H        6.8078253880   -7.2863892407    8.7018429902
H        7.8023110547   -3.1229820851    8.7677973576
H        4.2291984693   -5.5736191433    2.4800738487
30   

C        7.4340434616   -5.6053752183    4.3806631357
C        8.5132924978   -9.0899003385    2.1403616904
C        8.8642892450   -8.9512377729    0.8006469263
C        7.5689762481   -8.2301505390    2.7052198476
C        6.0084170912   -6.1721175314    7.1484411007
C        8.2715607235   -7.9484308911    0.0334875639
C        6.8720495853   -6.3746527726    8.2286073474
C        7.2421586990   -4.0028927589    8.3695376520
C        6.9516176997   -7.2118440721    1.9475976826
C        5.7575367242   -4.8784486230    6.6624457921
C        7.4982336255   -5.2909305597    8.8478315806
C        7.3227087614   -7.0739735555    0.5816096789
C        6.3763758046   -3.7802990641    7.2916072389
C        6.1170346657   -5.8311998838    3.8741944966
C        5.9375271114   -6.3380708243    2.5859440417
N        8.5160763508   -5.4478122832    4.7841852709
N        4.8771416688   -4.6702205424    5.6080415078
N        4.9672222981   -5.2543563755    4.4589068580
O        4.8528744645   -6.0141993870    1.8923555684
Cl       8.5769420674   -5.5387077269   10.1978055540
Cl       6.6917648857   -5.8053580082   -0.4545338182
Cl       6.0978839069   -2.1412400790    6.7359835548
H        8.9714324111   -9.8650105600    2.7447220229
H        9.5982824309   -9.6147283162    0.3563969977
H        7.3044263710   -8.3682359820    3.7476115713
H        5.5225139896   -7.0206421021    6.6809863923
H        8.5543502998   -7.8315336872   -1.0063528683
H        7.0597309671   -7.3778654276    8.5928042609
H        7.7254449356   -3.1560152973    8.8412240809
H        4.3014416778   -5.4109601458    2.4237696143
30   

C        7.4455351276   -5.4645795599    4.3275162015
C        8.5040941889   -9.1077731786    2.2206778757
C        8.8428680834   -9.0381872235    0.8731872994
C        7.5731636135   -8.2128693681    2.7515993912
C        6.1433642624   -6.2582982144    7.1394547018
C        8.2514518077   -8.0688268710    0.0641709956
C        7.0345377885   -6.4223886398    8.2032911678
C        7.2268091215   -4.0337763099    8.4027499047
C        6.9541175865   -7.2267380489    1.9526138403
C        5.7858777351   -4.9757235807    6.6935643567
C        7.5851042077   -5.3106020381    8.8441387045
C        7.3153619748   -7.1589846758    0.5758596644
C        6.3306702096   -3.8499798095    7.3423883273
C        6.1432556347   -5.8478668214    3.8836756551
C        5.9606342602   -6.3144753670    2.5735965907
N        8.5175046342   -5.1755165361    4.6817223441
N        4.8692694644   -4.8096909936    5.6629739283
N        4.9665517753   -5.3818500591    4.5091029280
O        4.9437916399   -5.8721950354    1.8471299589
Cl       8.6953391310   -5.5108172273   10.1762299694
Cl       6.6965931848   -5.9406216290   -0.5268682190
Cl       5.9216716141   -2.2230634549    6.8337302832
H        8.9620417033   -9.8563162567    2.8577805233
H        9.5670176720   -9.7287870437    0.4548336671
H        7.3216141071   -8.2990707431    3.8026856860
H        5.7144848499   -7.1287289195    6.6567886663
H        8.5263359044   -8.0053863665   -0.9824403995
H        7.3008440861   -7.4175999686    8.5392001802
H        7.6518069274   -3.1650946974    8.8907013498
H        4.4065178915   -5.2614825044    2.3842135718
30   

C        7.4350055742   -5.3207886432    4.2675276226
C        8.4857394139   -9.1213310008    2.2652340485
C        8.8113544237   -9.1165347712    0.9135041868
C        7.5722411366   -8.1914050031    2.7647353143
C        6.2589039214   -6.3262762249    7.1117984342
C        8.2230564987   -8.1775282647    0.0682641161
C        7.1704927135   -6.4442580083    8.1640701064
C        7.1877549949   -4.0521759421    8.4093423553
C        6.9556720807   -7.2317200357    1.9306359489
C        5.8003206550   -5.0660359602    6.6971956533
C        7.6433149076   -5.3073048219    8.8225444617
C        7.3036306707   -7.2326080134    0.5459620938
C        6.2685616677   -3.9151819972    7.3616605763
C        6.1716082716   -5.8533577842    3.8700775049
C        5.9902594090   -6.2756751409    2.5350625248
N        8.4763880218   -4.9053808659    4.5850913111
N        4.8555864979   -4.9516670159    5.6855462769
N        4.9725151573   -5.5072699571    4.5261140460
O        5.0591349430   -5.7133615482    1.7798840878
Cl       8.7765483097   -5.4507545761   10.1424407329
Cl       6.6928508958   -6.0671741108   -0.6176717363
Cl       5.7348147720   -2.3137430607    6.8890546736
H        8.9412941265   -9.8463919391    2.9305851985
H        9.5228283095   -9.8339917327    0.5192687620
H        7.3354238007   -8.2302452300    3.8219325138
H        5.8888360347   -7.2165471144    6.6168451364
H        8.4877752879   -8.1656714336   -0.9828492119
H        7.5117478555   -7.4234681373    8.4784094793
H        7.5527013230   -3.1638952240    8.9104890364
H        4.5386684630   -5.0899102345    2.3185022448
30   

C        7.4209746260   -5.1898542775    4.2369442718
C        8.4268555362   -9.1498753271    2.2861623950
C        8.7304812816   -9.1990350704    0.9309788764
C        7.5478101922   -8.1788015999    2.7682504475
C        6.3832575232   -6.3909812866    7.1094664620
C        8.1519186897   -8.2747186026    0.0640448401
C        7.3159930851   -6.4626860470    8.1469377942
C        7.1791627654   -4.0781170935    8.4265355548
C        6.9437241420   -7.2271496115    1.9140390750
C        5.8342412394   -5.1591754215    6.7219409557
C        7.7220397310   -5.3060385863    8.8155663470
C        7.2658854455   -7.2887736178    0.5220447711
C        6.2364934347   -3.9883284600    7.3946617468
C        6.2083674831   -5.8515453847    3.8791496148
C        6.0295282900   -6.2153145929    2.5129355336
N        8.4202529763   -4.6631444349    4.5227935172
N        4.8626020952   -5.0983824816    5.7320653222
N        4.9985825673   -5.6295205393    4.5640484608
O        5.2064935763   -5.5226940108    1.7432073273
Cl       8.8798111087   -5.3927192829   10.1189094124
Cl       6.6621536684   -6.1628663103   -0.6841225724
Cl       5.5908539074   -2.4197675202    6.9525137095
H        8.8741013890   -9.8642926888    2.9684599594
H        9.4166389311   -9.9477652949    0.5502419667
H        7.3332876093   -8.1795074687    3.8307516776
H        6.0637373056   -7.2968410149    6.6076472804
H        8.3979792936   -8.3075133363   -0.9911731969
H        7.7245304102   -7.4216508360    8.4427936755
H        7.4924974737   -3.1744826271    8.9351303371
H        4.7168496604   -4.8785645837    2.2859443435
30   

C        7.4067228046   -5.0467413213    4.2213712224
C        8.3537909981   -9.1975473780    2.2952888044
C        8.6236799334   -9.3037823619    0.9368782569
C        7.5256270443   -8.1764698510    2.7634969756
C        6.5188159642   -6.4361682850    7.1119430933
C        8.0583856547   -8.3890305915    0.0520125340
C        7.4637183869   -6.4391777251    8.1405237900
C        7.1452015448   -4.0732389562    8.4314936733
C        6.9404111187   -7.2265902157    1.8924805767
C        5.8706584705   -5.2502382644    6.7368585825
C        7.7847439555   -5.2570104733    8.8107369305
C        7.2218029346   -7.3537374727    0.4942093305
C        6.1879133677   -4.0534331046    7.4093209139
C        6.2692662889   -5.8362606944    3.8795692098
C        6.0992000884   -6.1464907901    2.4838271896
N        8.3428299493   -4.4083257482    4.4928011544
N        4.8831535125   -5.2671572764    5.7620009670
N        5.0553720469   -5.7670522480    4.5856281812
O        5.4018599143   -5.3397827690    1.7026473708
Cl       8.9563690303   -5.2590510704   10.1044562992
Cl       6.6202401694   -6.2647128555   -0.7469883851
Cl       5.4181867415   -2.5385035806    6.9791953955
H        8.7894406704   -9.9056133999    2.9915759038
H        9.2721401325  -10.0905777029    0.5669814912
H        7.3425944097   -8.1368114910    3.8309453017
H        6.2643131705   -7.3620394608    6.6094737197
H        8.2752944642   -8.4696056676   -1.0070447945
H        7.9470754604   -7.3650137029    8.4289417172
H        7.3927649374   -3.1498167583    8.9408155294
H        4.9563755110   -4.6624788137    2.2425778419
30   

C        5.9372704288   -7.1171198855    5.0130479338
C        9.3863148437   -7.0953730263    1.5390786975
C        9.2330710858   -7.7561700471    0.3275430896
C        8.2620088704   -6.6867629783    2.2568948553
C        5.6964772893   -4.9870320654    7.6596615848
C        7.9527184030   -7.9968323053   -0.1640251477
C        6.2808097378   -5.4573354718    8.8382134842
C        8.4545101642   -5.2401561356    7.8342673254
C        6.9459305917   -6.9242844561    1.7931096374
C        6.4844659998   -4.6498634415    6.5502502554
C        7.6670581613   -5.5859388737    8.9362392188
C        6.8046633441   -7.5946489578    0.5346992974
C        7.8872999703   -4.7715881850    6.6427876765
C        6.0752307887   -6.0981059409    4.0302329080
C        5.8021410072   -6.4972657289    2.6513144460
N        5.8084644363   -7.9589482918    5.8082433428
N        5.8671891332   -4.1350966044    5.4202520963
N        5.8463261261   -4.7345725440    4.2777306266
O        4.5589541808   -6.6823349599    2.2491925103
Cl       8.4059476542   -6.1534610762   10.4121660970
Cl       5.2676833536   -7.9882218306   -0.2215660124
Cl       8.9421321201   -4.3040726636    5.3229027132
H       10.3787259825   -6.9002520902    1.9303986580
H       10.1029377416   -8.0834070230   -0.2314674517
H        8.4388436383   -6.1777004765    3.1959874426
H        4.6185311137   -4.8861352543    7.5976453670
H        7.8350848442   -8.5143280672   -1.1091982166
H        5.6572274147   -5.7218406563    9.6846132464
H        9.5314166497   -5.3249469140    7.9071568483
H        3.9386544214   -6.3907483810    2.9402011661
30   

C        6.0588896918   -7.0799740361    4.8954892470
C        9.4124145034   -7.1967076496    1.6117761283
C        9.2447726807   -7.9532705324    0.4590240127
C        8.2986514959   -6.6739620582    2.2698206872
C        5.6761127870   -5.1210317072    7.6982022186
C        7.9611074771   -8.1797037267   -0.0316735024
C        6.3643457740   -5.5774069344    8.8247362968
C        8.4505513849   -5.1077204472    7.7264556057
C        6.9810092213   -6.8878898114    1.8007867777
C        6.3669983734   -4.6644069423    6.5670996398
C        7.7595418476   -5.5728533829    8.8490925842
C        6.8241211459   -7.6652703139    0.6089068300
C        7.7789465485   -4.6505323476    6.5854798082
C        6.0720869798   -5.9986020590    3.9689482899
C        5.8487993106   -6.3170070767    2.5849664348
N        6.0432749382   -7.9709479538    5.6463048571
N        5.6367804925   -4.1766661261    5.4926384637
N        5.6565807763   -4.7004254369    4.3130940800
O        4.6222717858   -6.3242527587    2.0889644088
Cl       8.6263731440   -6.1241898777   10.2602039276
Cl       5.2766809428   -8.0752071469   -0.1160003448
Cl       8.7152151583   -4.0315380275    5.2381487867
H       10.4074992460   -7.0138763493    2.0021619532
H       10.1058743841   -8.3676581769   -0.0538624612
H        8.4804399102   -6.0873230841    3.1622587482
H        4.5916614783   -5.1262586400    7.6931875926
H        7.8317289617   -8.7764804750   -0.9272828323
H        5.8144761708   -5.9357704989    9.6875727512
H        9.5329601600   -5.0896000327    7.7433937811
H        4.0039305782   -5.9412971491    2.7361126511
30   

C        6.2060101107   -7.0313569893    4.8434914631
C        9.3991118665   -7.2694519701    1.6284685624
C        9.2009352732   -8.0724920339    0.5118158669
C        8.3057786061   -6.6825702459    2.2667475943
C        5.6395360355   -5.1695346146    7.7246397065
C        7.9073554589   -8.2841961236    0.0394510137
C        6.3878151995   -5.5948020236    8.8245859908
C        8.4070136977   -4.9820089447    7.6732678456
C        6.9811380867   -6.8769913951    1.8113356955
C        6.2657314397   -4.6574297302    6.5797916666
C        7.7799679332   -5.5035800084    8.8086327576
C        6.7913547301   -7.7064079376    0.6624568692
C        7.6749022116   -4.5537575613    6.5581345878
C        6.0559800861   -5.9385720667    3.9407602165
C        5.8717650633   -6.2238300139    2.5594249026
N        6.3321517008   -7.9311166160    5.5731951279
N        5.4691776268   -4.2150380506    5.5320094965
N        5.5087321988   -4.7038786240    4.3373299703
O        4.6772973089   -6.0935130708    2.0034830718
Cl       8.7207013919   -6.0191632010   10.1856231330
Cl       5.2219373851   -8.1104095528   -0.0158973578
Cl       8.5328637639   -3.8651207242    5.1921027078
H       10.4018076936   -7.0991769850    2.0047779237
H       10.0459535438   -8.5352332306    0.0137339492
H        8.5053561164   -6.0575454815    3.1294857043
H        4.5579513854   -5.2443820067    7.7505004464
H        7.7535212490   -8.9193071984   -0.8253742493
H        5.8870850231   -5.9977731994    9.6976064559
H        9.4863653231   -4.8980214986    7.6593089874
H        4.0730766251   -5.6564856475    2.6298343315
30   

C        6.3706007104   -6.9658032570    4.8205047074
C        9.3970275313   -7.3095344973    1.6152421891
C        9.1630834206   -8.1648159344    0.5442022389
C        8.3254830669   -6.6783062290    2.2487624015
C        5.5721928736   -5.2009579830    7.7497430954
C        7.8557737666   -8.3865918642    0.1144274094
C        6.3502010000   -5.5904620082    8.8421732268
C        8.3245472941   -4.8607757037    7.6815074910
C        6.9905571615   -6.8803271666    1.8316442841
C        6.1605112562   -4.6491648568    6.6033492620
C        7.7350747868   -5.4237032287    8.8173135084
C        6.7625971021   -7.7650554835    0.7352943483
C        7.5622500456   -4.4656949898    6.5739531988
C        6.0492721750   -5.8971223467    3.9316857094
C        5.9034578389   -6.1698924152    2.5549107317
N        6.6421905932   -7.8450207326    5.5355932604
N        5.3296956419   -4.2551338232    5.5620120503
N        5.3946984746   -4.7247229851    4.3599399539
O        4.7534202035   -5.9223863732    1.9451245803
Cl       8.7122445739   -5.8986842641   10.1836113068
Cl       5.1667013322   -8.1856966602    0.1346012445
Cl       8.3732382522   -3.7263348944    5.2054072766
H       10.4103209371   -7.1322698040    1.9584235251
H        9.9910233010   -8.6607861624    0.0494337089
H        8.5458322453   -6.0100333675    3.0737691367
H        4.4966761966   -5.3361547269    7.7821529324
H        7.6734208113   -9.0634494116   -0.7123289882
H        5.8784115672   -6.0256622227    9.7158357147
H        9.3978526545   -4.7198264335    7.6605993743
H        4.1600554110   -5.4488950766    2.5556033783
30   

C        6.5039044237   -6.9209392499    4.8000522386
C        9.4003857636   -7.3686361168    1.5965840126
C        9.1313955640   -8.2488534675    0.5533348566
C        8.3518076166   -6.7003850201    2.2311560892
C        5.5174360982   -5.2762987699    7.7670195621
C        7.8122369782   -8.4596679005    0.1534167690
C        6.3255783746   -5.6232274756    8.8517893833
C        8.2412816928   -4.7569395819    7.6869086915
C        7.0080059581   -6.8911832446    1.8412407194
C        6.0611833849   -4.6786541825    6.6217819507
C        7.6966192895   -5.3675813231    8.8204991846
C        6.7432628879   -7.8007005933    0.7773680121
C        7.4479981034   -4.4017445767    6.5872805223
C        6.0368460989   -5.8959649625    3.9230356869
C        5.9411662511   -6.1374189606    2.5459636769
N        6.8979955593   -7.7637326375    5.5020255028
N        5.1981525505   -4.3387939817    5.5869779633
N        5.2878027336   -4.7900777893    4.3788031767
O        4.8602673212   -5.7600487129    1.8765186714
Cl       8.7110573342   -5.7931158111   10.1759774617
Cl       5.1235479508   -8.2023639910    0.2315183882
Cl       8.2018171026   -3.6015670640    5.2200628813
H       10.4228083485   -7.2000599906    1.9162336945
H        9.9414247732   -8.7724168932    0.0573576374
H        8.5939147075   -6.0107887062    3.0325020556
H        4.4532850484   -5.4818691390    7.8038694596
H        7.6019389834   -9.1556619039   -0.6504659134
H        5.8882181423   -6.0955517102    9.7240619759
H        9.3034129508   -4.5482499958    7.6609831424
H        4.2704708630   -5.2647130928    2.4734039306
30   

C        6.6417824224   -6.8402206224    4.8031461460
C        9.4083073308   -7.3983498717    1.5847029730
C        9.0988592515   -8.2985669919    0.5692088890
C        8.3870027874   -6.6946629962    2.2259090448
C        5.4647011119   -5.3511326243    7.8067488446
C        7.7668364958   -8.4935162783    0.2034242335
C        6.2973149630   -5.6517887367    8.8866808394
C        8.1427151562   -4.6312117757    7.7333743699
C        7.0326619755   -6.8721125467    1.8701695931
C        5.9612315952   -4.7005989304    6.6691964370
C        7.6460135916   -5.2966111243    8.8582215607
C        6.7263956679   -7.7983213517    0.8359012865
C        7.3235808903   -4.3191198246    6.6392894462
C        6.0321899392   -5.8753067708    3.9442173457
C        5.9876343418   -6.0835288238    2.5655867613
N        7.1539261090   -7.6325242631    5.4877033880
N        5.0729984543   -4.4172345821    5.6383848933
N        5.1906226761   -4.8473302258    4.4244551047
O        4.9867036294   -5.5830024667    1.8513186224
Cl       8.6910441550   -5.6679672743   10.2064380892
Cl       5.0825352157   -8.1681647268    0.3445200958
Cl       8.0146947122   -3.4473454370    5.2826838185
H       10.4407060302   -7.2414225277    1.8770641279
H        9.8876881621   -8.8490060064    0.0681906861
H        8.6564602854   -5.9883975150    3.0037919072
H        4.4185728776   -5.6347545158    7.8408320374
H        7.5246077200   -9.2033529747   -0.5790373585
H        5.8966529996   -6.1663516290    9.7526287690
H        9.1870823488   -4.3463218461    7.7096351299
H        4.3974399684   -5.0764459091    2.4396336537
30   

C        6.7487598552   -6.7880782302    4.8092849220
C        9.3910231338   -7.4669400032    1.5530707549
C        9.0389817372   -8.3824453293    0.5646490365
C        8.3992841200   -6.7320398235    2.2060695541
C        5.4144094085   -5.4582749959    7.8335979590
C        7.6942661627   -8.5605787474    0.2369075278
C        6.2775528093   -5.6928560590    8.9058130329
C        8.0186832000   -4.5063150877    7.7492676342
C        7.0341636741   -6.8960266147    1.8894783871
C        5.8440300508   -4.7594303825    6.6977466724
C        7.5902597294   -5.2222757625    8.8712152530
C        6.6846919089   -7.8332026290    0.8827269686
C        7.1669815996   -4.2573194168    6.6635410552
C        6.0056774042   -5.9100666458    3.9611116813
C        6.0118548789   -6.0782403188    2.5810984261
N        7.3704476387   -7.5084848713    5.4826915535
N        4.9274761345   -4.5543568842    5.6727509194
N        5.0712595129   -4.9723630102    4.4568192215
O        5.1015829660   -5.4622295959    1.8342575484
Cl       8.6741186215   -5.5150492994   10.2081668118
Cl       5.0184741735   -8.1656323492    0.4451722791
Cl       7.7691950616   -3.3181469418    5.3095682821
H       10.4333746032   -7.3218644444    1.8146447421
H        9.8048889468   -8.9563703584    0.0545084716
H        8.6990658682   -6.0128330601    2.9606412438
H        4.3973424542   -5.8324826478    7.8716618558
H        7.4185759692   -9.2797587230   -0.5256562444
H        5.9292117829   -6.2467891092    9.7700559914
H        9.0346637297   -4.1328183898    7.7207663913
H        4.5074443687   -4.9516153679    2.4143690594
30   

C        6.8955024577   -6.6818074657    4.7914499320
C        9.3838467941   -7.5324973731    1.4705475443
C        8.9749425083   -8.4719176315    0.5266744843
C        8.4330989957   -6.7571352359    2.1380674688
C        5.3679416548   -5.5933312858    7.8164968365
C        7.6147844909   -8.6321733378    0.2566963781
C        6.2388440222   -5.7795197371    8.8919274085
C        7.8717030686   -4.3982239516    7.7948407369
C        7.0544478669   -6.9067370002    1.8809734279
C        5.7411147026   -4.8220658457    6.7082365379
C        7.5020690344   -5.1876265867    8.8881995465
C        6.6474288885   -7.8632494029    0.9184970754
C        7.0100234549   -4.1951764866    6.7071553871
C        6.0229157525   -5.9186130978    3.9547775861
C        6.0666587510   -6.0516126296    2.5735291312
N        7.6231576237   -7.3090243607    5.4520594699
N        4.8225405993   -4.6755467026    5.6752420969
N        5.0059353903   -5.0746468337    4.4576203516
O        5.2483088676   -5.3344237512    1.8103714617
Cl       8.5968088413   -5.4232489532   10.2276489298
Cl       4.9563906587   -8.1549626677    0.5563948377
Cl       7.5330260719   -3.1646495675    5.3873915584
H       10.4384028005   -7.3998087995    1.6857158315
H        9.7090236521   -9.0766322313    0.0054315991
H        8.7746742321   -6.0191174754    2.8557680363
H        4.3903822180   -6.0623603619    7.8294516171
H        7.2946806757   -9.3669609449   -0.4728918800
H        5.9358550525   -6.3910222919    9.7341050860
H        8.8491306064   -3.9321430352    7.7898055247
H        4.6529035222   -4.8166683381    2.3829249408
