28   

C       -3.3212227745    4.3776585084    2.2440570378
C       -3.7908028842    3.1657876310    2.7564628347
C       -2.3297564967    4.3765830458    1.2594844812
C       -3.2716618626    1.9556711560    2.2822756236
C       -1.8015016802    3.1654146961    0.7970556831
C       -2.2641114281    1.9396938590    1.3025335613
C       -0.5315446173    0.3972595081    0.1308222595
C        0.5573667372   -0.2158247191    0.8483098377
C       -0.5199770938    0.0341626088   -1.3278069225
C       -1.7052720252    0.6891145939    0.8350892389
C        1.9106419980   -0.2954077634   -1.1914125258
C        0.6750119807   -0.9307022896   -3.2781639456
N        1.6972640497   -0.6040405503    0.2010149933
N        0.6617592465   -0.3969439821   -1.9208885451
O        0.4881973736   -0.4598358406    2.0401598196
O       -1.5567452007    0.0837983642   -1.9731166020
H       -3.7248736285    5.3153276878    2.6092831577
H       -4.5554089104    3.1622706590    3.5250146624
H       -1.9689365501    5.3146457680    0.8533773849
H       -3.6447773705    1.0258019899    2.6963749413
H       -1.0342792404    3.1792122300    0.0314855283
H       -2.0813534718   -0.1577476482    1.3996170456
H        2.3197239145    0.7160758783   -1.2887681468
H        2.6372177322   -1.0023419389   -1.6058358954
H        1.5990535994   -0.6447432065   -3.7904537418
H       -0.1597452644   -0.5407014866   -3.8694091624
H        0.6062940432   -2.0228116104   -3.2509339638
H        2.3621218813   -1.1252025554    0.7595611814
28   

C       -3.4678356526    4.3768648265    2.0372543929
C       -3.8193484113    3.2242364903    2.7439515140
C       -2.5591153592    4.2914044341    0.9793270538
C       -3.2640589536    1.9888468067    2.3916045914
C       -1.9930335505    3.0573221418    0.6384449147
C       -2.3346324603    1.8905729616    1.3412385514
C       -0.5676688164    0.3065544586    0.3024639628
C        0.4445881733   -0.4936900504    0.9450912077
C       -0.5892822519    0.1153714712   -1.1833444538
C       -1.7301788891    0.6159589429    0.9992064579
C        1.7750220301   -0.5716444288   -1.1152671228
C        0.4925271970   -0.6966272485   -3.2626267943
N        1.5236025424   -0.9629325252    0.2497734265
N        0.5314907441   -0.3849802971   -1.8377244233
O        0.3651662190   -0.8155931759    2.1179058928
O       -1.5897090650    0.4136829630   -1.8197670572
H       -3.8999868380    5.3337358907    2.3077077960
H       -4.5203335921    3.2868589165    3.5685592653
H       -2.2928094254    5.1811106531    0.4202720531
H       -3.5459617423    1.1072452438    2.9561471907
H       -1.2951789261    3.0040371790   -0.1896080888
H       -2.0060229201   -0.1327550935    1.7351548446
H        2.3554240048    0.3572049322   -1.1321210652
H        2.3662849051   -1.3543034882   -1.6024372725
H        0.9291561035    0.1245083811   -3.8396316664
H       -0.5337889103   -0.8591579582   -3.6077578455
H        1.0513578103   -1.6155334684   -3.4662020742
H        2.1345330694   -1.5860432017    0.7637580579
28   

C       -3.5031308732    4.3690353037    1.9198414552
C       -3.7837708007    3.2805588930    2.7485567360
C       -2.6372070887    4.2087239849    0.8354567704
C       -3.2011213167    2.0345953220    2.4909448086
C       -2.0421416682    2.9657791276    0.5891815227
C       -2.3132450257    1.8608503860    1.4140811042
C       -0.5585533986    0.2239358846    0.4581799466
C        0.4094864179   -0.6788188879    1.0311072886
C       -0.5737900502    0.1834651367   -1.0381814923
C       -1.6809349210    0.5709532910    1.1814983987
C        1.7474872491   -0.6439375812   -1.0253803825
C        0.4882340469   -0.4717436049   -3.1820778396
N        1.4608202408   -1.1481196141    0.2948957406
N        0.5254119621   -0.3120142132   -1.7320597655
O        0.3245616888   -1.0773082133    2.1799051931
O       -1.5481769189    0.5947741309   -1.6519145075
H       -3.9569545461    5.3338858060    2.1162401100
H       -4.4510429726    3.4013704372    3.5943771692
H       -2.4261789002    5.0470711085    0.1815245622
H       -3.4289548550    1.2047101379    3.1503330928
H       -1.3781286467    2.8609073511   -0.2609388798
H       -1.9106924240   -0.1080790683    1.9966456878
H        2.3838424211    0.2445878137   -0.9510744288
H        2.2942248316   -1.4115002220   -1.5834400574
H        0.9726867839    0.3814497983   -3.6670840374
H       -0.5405173307   -0.5449901622   -3.5496884914
H        1.0027567465   -1.3918107580   -3.4767421846
H        2.0470439613   -1.8302669321    0.7603838606
28   

C       -3.5261322455    4.3227356704    1.7807083782
C       -3.7444627580    3.2834649920    2.6864595012
C       -2.6841620415    4.1195488233    0.6853871135
C       -3.1253667815    2.0437517503    2.4931866138
C       -2.0528444416    2.8834396532    0.5020567151
C       -2.2646423990    1.8228452537    1.4018539458
C       -0.5523735902    0.1162681034    0.4755546056
C        0.3819203237   -0.8572306249    0.9874810550
C       -0.5681414297    0.1771205109   -1.0189372246
C       -1.6017219237    0.5333862538    1.2552839502
C        1.7293337925   -0.7149035550   -1.0552600550
C        0.4865561349   -0.3597402290   -3.1996169647
N        1.4123942381   -1.3165492698    0.2164267826
N        0.5237973089   -0.2928386767   -1.7421655198
O        0.2986977266   -1.3106448422    2.1159459892
O       -1.5429691262    0.6177275635   -1.6109373485
H       -4.0080639935    5.2828578488    1.9268937103
H       -4.3920140851    3.4374270704    3.5421911575
H       -2.5176148065    4.9203620972   -0.0259085745
H       -3.3073578265    1.2539173477    3.2132643898
H       -1.4016549112    2.7611035754   -0.3540805680
H       -1.7828132898   -0.0868913219    2.1274888862
H        2.3885084619    0.1466680728   -0.9029723698
H        2.2615380791   -1.4495721358   -1.6688458503
H        0.9658362252    0.5255342141   -3.6290558921
H       -0.5420420290   -0.4161246018   -3.5705959938
H        1.0062961079   -1.2556697258   -3.5535191640
H        1.9862295481   -2.0351061605    0.6407198933
28   

C       -3.6686932338    4.4606403069    1.7853455562
C       -3.7723480037    3.4535318698    2.7449719473
C       -2.8789285891    4.2556380057    0.6528319583
C       -3.0938766708    2.2433264334    2.5664365736
C       -2.1880957294    3.0496175135    0.4828193448
C       -2.2890529636    2.0153855379    1.4334058598
C       -0.6164262485    0.2767703450    0.4624806051
C        0.3054903071   -0.7439564801    0.9014061142
C       -0.6535541906    0.4281227142   -1.0242559032
C       -1.5706485656    0.7515161512    1.3198164504
C        1.6364943292   -0.4763049520   -1.1349846090
C        0.3829836776    0.0161932892   -3.2443270817
N        1.3124982698   -1.1747504054    0.0844397711
N        0.4325820262    0.0046560480   -1.7853166776
O        0.2453011609   -1.2491788889    2.0091933591
O       -1.6497491527    0.8626289553   -1.5835548440
H       -4.1968816165    5.3978985542    1.9196300980
H       -4.3773329441    3.6092556232    3.6310287182
H       -2.7966616578    5.0333439678   -0.0977724582
H       -3.1897819731    1.4796156312    3.3300460577
H       -1.5717618812    2.9440289234   -0.3992780505
H       -1.6702828374    0.1718612909    2.2320864736
H        2.3001032714    0.3669380403   -0.9144601375
H        2.1654384992   -1.1629907536   -1.8044288391
H        0.9073001010    0.8955620936   -3.6311184546
H       -0.6478129700    0.0348727693   -3.6126345267
H        0.8521015844   -0.8868003967   -3.6475633378
H        1.8908974858   -1.9158876170    0.4609776311
28   

C       -3.7081402726    4.4360171435    1.7477053820
C       -3.7116494359    3.4774601443    2.7601398092
C       -2.9759173784    4.2042411174    0.5828066367
C       -2.9937122190    2.2878005313    2.6005517230
C       -2.2453472821    3.0192701132    0.4305125706
C       -2.2496747969    2.0277833295    1.4321895253
C       -0.6369354768    0.2197057124    0.4523287466
C        0.2410935261   -0.8507002090    0.8651843112
C       -0.6443921047    0.4254178471   -1.0275293286
C       -1.4954000090    0.7808751293    1.3524531878
C        1.6226089153   -0.5363085818   -1.1274070330
C        0.4353054601    0.0847597785   -3.2406066080
N        1.2424191058   -1.2867751679    0.0440404347
N        0.4510393487    0.0133670619   -1.7822302884
O        0.1599459409   -1.3835981365    1.9586366005
O       -1.6349984262    0.8604806558   -1.5952676709
H       -4.2674062102    5.3571730916    1.8667768668
H       -4.2699855857    3.6545536705    3.6724452404
H       -2.9672165104    4.9463726982   -0.2072653718
H       -3.0147004101    1.5630956756    3.4067756134
H       -1.6699389291    2.9100369559   -0.4767366314
H       -1.5371496656    0.2495122189    2.2979187402
H        2.3037858728    0.2739273782   -0.8452620148
H        2.1500856072   -1.2033263939   -1.8175859614
H        0.9889899696    0.9660420474   -3.5791120601
H       -0.5853741478    0.1432162876   -3.6320318096
H        0.8928237403   -0.8120585586   -3.6700582013
H        1.7965810637   -2.0536535028    0.4051626807
28   

C       -3.7688892952    4.4410154348    1.7723306755
C       -3.6505748845    3.5343321546    2.8238472963
C       -3.1172811660    4.1832005382    0.5664790779
C       -2.8946915085    2.3689729220    2.6616694852
C       -2.3476350294    3.0235649218    0.4105097252
C       -2.2323895424    2.0782602958    1.4507653261
C       -0.6758792316    0.2143017146    0.4516183265
C        0.1519851836   -0.9018218723    0.8483086282
C       -0.6348871279    0.4707834717   -1.0192342357
C       -1.4418727712    0.8525603615    1.3820495918
C        1.6040748227   -0.5582587384   -1.0857455534
C        0.5110982624    0.1856641351   -3.2087375988
N        1.1552351864   -1.3475186172    0.0348903714
N        0.4763873729    0.0628610700   -1.7536944324
O        0.0349574679   -1.4588425917    1.9264122379
O       -1.6121566065    0.9055759484   -1.6084633996
H       -4.3585829145    5.3428286640    1.8927599529
H       -4.1442320122    3.7324579001    3.7685575998
H       -3.2004530246    4.8867674550   -0.2540049182
H       -2.8238683368    1.6859161336    3.5007824206
H       -1.8364301186    2.9106057693   -0.5319613858
H       -1.4251962033    0.3604678058    2.3492091993
H        2.3026677100    0.2126597893   -0.7427152962
H        2.1322690492   -1.2121042059   -1.7879263511
H        1.1181123299    1.0493643305   -3.4974236880
H       -0.4911308054    0.3092964574   -3.6312235450
H        0.9382850218   -0.7173356931   -3.6561098161
H        1.6765951462   -2.1414650582    0.3862529844
28   

C       -3.8328083882    4.4480509599    1.8168565235
C       -3.5650822618    3.6196334521    2.9039668629
C       -3.2878811936    4.1413789636    0.5708983504
C       -2.7678982261    2.4828140955    2.7380866411
C       -2.4769812521    3.0109000692    0.4091984871
C       -2.2101927369    2.1404493356    1.4873272445
C       -0.6975305456    0.2311095879    0.4826879803
C        0.0858797727   -0.9159918460    0.8798714002
C       -0.5959032775    0.5240289068   -0.9781492033
C       -1.3785390157    0.9417304749    1.4277949484
C        1.6183881771   -0.5623148728   -0.9885644671
C        0.6448634677    0.2954141133   -3.1226525635
N        1.1017525013   -1.3718760134    0.0880514715
N        0.5380316013    0.1164962273   -1.6773875460
O       -0.0734515610   -1.4844287946    1.9465184252
O       -1.5594125769    0.9328606782   -1.6057764847
H       -4.4556790306    5.3269447555    1.9397960308
H       -3.9754130126    3.8558740120    3.8793062116
H       -3.4872774776    4.7842958353   -0.2788828241
H       -2.5834805015    1.8620523532    3.6077883658
H       -2.0624577177    2.8698347259   -0.5737326804
H       -1.2967838514    0.4949663806    2.4134750182
H        2.3299141330    0.1721193112   -0.5960938002
H        2.1474255809   -1.2122617879   -1.6939992850
H        1.6268945856    0.7059242128   -3.3775901077
H       -0.1069939339    0.9938311143   -3.5038270062
H        0.5130974227   -0.6643399649   -3.6320058097
H        1.5879072231   -2.1889612252    0.4368595702
28   

C       -3.8683253612    4.3962665527    1.8331902515
C       -3.2049853114    3.8326961796    2.9200507526
C       -3.7183504328    3.8269812628    0.5701186611
C       -2.3801289842    2.7184116455    2.7360043659
C       -2.8993680770    2.7055162889    0.3892537933
C       -2.1802111503    2.1379666805    1.4640320951
C       -0.7076732070    0.2076594637    0.4350667388
C       -0.0584887729   -1.0257293426    0.8292361488
C       -0.5410974475    0.5520283975   -1.0081595666
C       -1.3050384471    0.9713541738    1.3974625175
C        1.3114723608   -1.0674420365   -1.1912672717
C        0.5009956172    0.1334203654   -3.2135694979
N        0.7774935748   -1.6966766320   -0.0144855572
N        0.3340576737   -0.1897617903   -1.7997163040
O       -0.2149019583   -1.5238073528    1.9310997465
O       -1.0174757635    1.5551848104   -1.5075244050
H       -4.5067165478    5.2617660058    1.9702855782
H       -3.3284099417    4.2579274775    3.9096685795
H       -4.2505546596    4.2433800879   -0.2775770336
H       -1.8810490564    2.3102381400    3.6077276710
H       -2.9098564429    2.2810935684   -0.6000269933
H       -1.0799030377    0.6227057895    2.4001840150
H        2.2057535268   -0.4919510898   -0.9264657024
H        1.6013231864   -1.8436110514   -1.9071913122
H        1.2148766430    0.9557449690   -3.3287970873
H       -0.4533616739    0.4294871335   -3.6611235629
H        0.8681311053   -0.7368095915   -3.7663642365
H        1.1716502313   -2.5479233498    0.3670721602
28   

C       -3.9609397533    4.2912157718    1.7281799054
C       -3.2507590272    3.8344888322    2.8369980043
C       -3.7583866589    3.6886438473    0.4866288401
C       -2.3319875168    2.7892049913    2.6979975103
C       -2.8448857789    2.6359136290    0.3510257923
C       -2.0922747126    2.1753871305    1.4509623492
C       -0.5941193530    0.2612937064    0.4442298619
C        0.0026043312   -0.9920172987    0.8484149414
C       -0.3536808879    0.6293516613   -0.9810754992
C       -1.1377057581    1.0732784636    1.4022842037
C        1.2804065265   -1.2110692105   -1.2351703912
C        0.6425184228    0.1810694581   -3.1945288395
N        0.7595128831   -1.7416156411   -0.0037055116
N        0.4288590360   -0.1831761011   -1.7974884322
O       -0.1427612260   -1.4491304035    1.9693233333
O       -0.6994578715    1.7100262884   -1.4303203563
H       -4.6725731808    5.1025401094    1.8318110627
H       -3.4115921605    4.2884483296    3.8083109059
H       -4.3181172100    4.0278191688   -0.3774981834
H       -1.7983674388    2.4573200735    3.5815260525
H       -2.7798296412    2.1736637463   -0.6220666671
H       -0.8755802700    0.7688654114    2.4105408720
H        2.2780554725   -0.7947696859   -1.0557954296
H        1.3752910761   -2.0308501997   -1.9548992259
H        1.4053268741    0.9634434176   -3.2661690127
H       -0.2854184610    0.5490041267   -3.6443912159
H        0.9700530454   -0.6875113767   -3.7743470979
H        1.1130141370   -2.6008636872    0.3994153422
28   

C       -4.0350164373    4.2364309430    1.7340103556
C       -3.2644757323    3.8669930892    2.8361742424
C       -3.8237773516    3.6104709004    0.5047175576
C       -2.2802122454    2.8818807999    2.7040529372
C       -2.8453425653    2.6170175963    0.3766740453
C       -2.0423574250    2.2416202414    1.4715588177
C       -0.5770280419    0.3297687022    0.4469267067
C       -0.0283276250   -0.9419375842    0.8492731053
C       -0.2813660145    0.7185872075   -0.9620420450
C       -1.0286584283    1.1963826025    1.4095529631
C        1.1727603132   -1.2685014019   -1.2756360378
C        0.7239125179    0.2778089461   -3.1710538095
N        0.6679543184   -1.7387122001   -0.0117216443
N        0.4544953553   -0.1210458762   -1.7933083250
O       -0.1604094802   -1.3725069929    1.9821017319
O       -0.5710737272    1.8289652019   -1.3813123827
H       -4.7974460130    5.0008147195    1.8330756849
H       -3.4299542399    4.3415182146    3.7967924706
H       -4.4235741441    3.8876460784   -0.3545923782
H       -1.7000645339    2.6130945116    3.5796087157
H       -2.7479339460    2.1351665114   -0.5859521486
H       -0.7052230861    0.9321192347    2.4114493104
H        2.2296690675   -1.0037134097   -1.1596897418
H        1.1025040846   -2.0858674924   -2.0009091932
H        1.5521490989    0.9934232035   -3.1998019713
H       -0.1606626469    0.7408356439   -3.6205393116
H        0.9866525281   -0.5925814214   -3.7804799064
H        0.9990634954   -2.6010188286    0.4038795120
28   

C       -4.0936531715    4.1695516370    1.7689001056
C       -3.2626839916    3.8817957365    2.8524032063
C       -3.8764919240    3.5348603318    0.5444720451
C       -2.2144088030    2.9665752701    2.7078498024
C       -2.8354786082    2.6090905748    0.4052435363
C       -1.9805131175    2.3127023388    1.4830551351
C       -0.5511876252    0.4046177143    0.4365775974
C       -0.0494569353   -0.8768833085    0.8598777129
C       -0.1977732626    0.7804821995   -0.9624482624
C       -0.9062021502    1.3337567770    1.3879375061
C        1.0989655224   -1.3183659086   -1.2809315772
C        0.8521366449    0.3130059616   -3.1436209517
N        0.6049874453   -1.7214712471    0.0114411983
N        0.5171647400   -0.0881386364   -1.7810832142
O       -0.1757709602   -1.2683225375    2.0073011429
O       -0.4590728762    1.8974271066   -1.3855361219
H       -4.9053077634    4.8799670426    1.8780779329
H       -3.4315416804    4.3649077678    3.8081008035
H       -4.5171723738    3.7551801523   -0.3016706204
H       -1.5873947606    2.7569441525    3.5670431003
H       -2.7106565488    2.1229003534   -0.5534653079
H       -0.5098228130    1.1198443136    2.3755876652
H        2.1854472939   -1.1922320800   -1.2165582165
H        0.8898742717   -2.1212638014   -1.9955238493
H        1.7158799727    0.9857645083   -3.1356369719
H        0.0072679155    0.8247522738   -3.6161781015
H        1.0916413152   -0.5621241701   -3.7559178274
H        0.9201255340   -2.5766194049    0.4535412487
28   

C       -4.1589138619    4.1029263312    1.8555200028
C       -3.2551382296    3.8855245463    2.8974462058
C       -3.9647146646    3.4672990433    0.6270855853
C       -2.1583647676    3.0371521579    2.7087195127
C       -2.8758963184    2.6065382638    0.4451620613
C       -1.9552712106    2.3779487411    1.4824790095
C       -0.5755508761    0.4715813806    0.3902398747
C       -0.1347997463   -0.8180939552    0.8489446631
C       -0.1540982633    0.8131910850   -0.9990714067
C       -0.8344180784    1.4648461545    1.3182076623
C        1.0425166737   -1.3533859887   -1.2568440766
C        0.9807596764    0.2928807481   -3.1244729649
N        0.5011884161   -1.7072194940    0.0320034464
N        0.5693300842   -0.0848982654   -1.7763768788
O       -0.2816161428   -1.1681232668    2.0070159506
O       -0.4028559650    1.9220534851   -1.4514913071
H       -5.0077148640    4.7619108086    1.9993026061
H       -3.4054632203    4.3709897599    3.8550042839
H       -4.6578143850    3.6390017869   -0.1884524024
H       -1.4738690944    2.8785638378    3.5342564195
H       -2.7478430378    2.1233862521   -0.5162001254
H       -0.3510378969    1.3019894656    2.2763564519
H        2.1344847788   -1.3129614859   -1.1766977072
H        0.7812892088   -2.1429373614   -1.9691602684
H        1.8702997378    0.9296287531   -3.0811731528
H        0.1797907734    0.8350789824   -3.6378191949
H        1.2114357712   -0.5954459615   -3.7209713114
H        0.7869356053   -2.5552372814    0.5067071144
28   

C       -4.1906604376    4.0048399502    1.9649218788
C       -3.1979216445    3.8690908846    2.9383942921
C       -4.0404703310    3.3714363400    0.7286571466
C       -2.0566848937    3.1030404501    2.6744273596
C       -2.9063247629    2.5920009327    0.4728272691
C       -1.9011346043    2.4442260330    1.4419606516
C       -0.5181760663    0.5828847507    0.2702367871
C       -0.1451783959   -0.7114996293    0.7722576142
C        0.0133261744    0.8878462331   -1.0885083576
C       -0.7377236501    1.6154604011    1.1802476729
C        0.9676143860   -1.3987023671   -1.3317489600
C        1.2606357882    0.2993357048   -3.1310255720
N        0.4624878134   -1.6547675655   -0.0050723571
N        0.7134418775   -0.0596188706   -1.8267440195
O       -0.3096841381   -1.0115522571    1.9418244725
O       -0.1432947522    2.0101982996   -1.5491962323
H       -5.0737566861    4.6002881307    2.1674284972
H       -3.3135762422    4.3538282385    3.9011069565
H       -4.8018111290    3.4835807591   -0.0347419966
H       -1.3016700280    3.0049859574    3.4461058584
H       -2.7984914890    2.1117126245   -0.4934886636
H       -0.1573034363    1.5115652634    2.0914209261
H        2.0509244428   -1.5623578208   -1.3217524313
H        0.5194488702   -2.1206735524   -2.0221860218
H        2.1995293276    0.8484124091   -3.0067378776
H        0.5552473020    0.9219248457   -3.6913720415
H        1.4534020261   -0.5973364310   -3.7285743862
H        0.7325177144   -2.4844926100    0.5095158879
28   

C       -4.2207358006    3.2361097897    2.4829118658
C       -3.0656249373    3.3586944921    3.2590552823
C       -4.1703384791    2.5466696681    1.2686155390
C       -1.8622290619    2.7954037644    2.8194008021
C       -2.9689978034    1.9713395005    0.8378151581
C       -1.8000304753    2.0868046469    1.6072385305
C       -0.2945359970    0.4932011980    0.2095163405
C        0.0591143012   -0.8266271971    0.6666459987
C        0.3055234472    0.8056354534   -1.1339461989
C       -0.5629857322    1.4765270594    1.1682981049
C        0.3263157794   -1.5972670858   -1.6423085626
C        1.4602636934    0.0189674289   -3.1869345235
N        0.4179565797   -1.8050744458   -0.2181876958
N        0.6958854300   -0.2342908144   -1.9708285640
O        0.1035959182   -1.1086011036    1.8512595541
O        0.4835979614    1.9690988316   -1.4631703780
H       -5.1526763653    3.6744252205    2.8219009493
H       -3.1018215481    3.8872151668    4.2049185916
H       -5.0625393569    2.4568262087    0.6595337074
H       -0.9779794349    2.8961113394    3.4385179909
H       -2.9436341777    1.4409698762   -0.1071644449
H        0.2143713598    1.5547805274    1.9212161840
H        1.0024020853   -2.2943109939   -2.1486830707
H       -0.6951926521   -1.8000854219   -1.9818948349
H        2.5281963071   -0.1227440302   -2.9928900680
H        1.3030928253    1.0380932757   -3.5544559989
H        1.1485199649   -0.6662520646   -3.9814898938
H        0.7555257130   -2.6663399858    0.1939825548
