16   

C        5.0202478855    1.6401471376    0.1071839418
C        5.3180362849    0.5088485824    0.8043048590
C        3.3530568224    0.2730439071   -0.2439690917
C        2.0817715281   -0.3296392602   -0.7324156873
C        0.4484412878   -2.1483167743   -0.3783323724
N        3.8079575174    1.4804326344   -0.5366910435
N        4.2730225820   -0.3802507758    0.5944221384
N        1.6820491508   -1.4600941398   -0.0278889350
O        1.4027938263    0.0992486055   -1.6584587348
H        5.6395106814    2.5287043164    0.0586345870
H        6.2145055508    0.3527220730    1.3934299945
H        0.2815672153   -2.9939362117    0.2957777050
H        0.5047720609   -2.5284599457   -1.4038523889
H       -0.4041589719   -1.4653027301   -0.2981599567
H        4.2229206599   -1.3464931637    0.9007263632
H        2.1569607377   -1.6884167963    0.8341393641
16   

C        4.9861858263    1.6555187886    0.1830409724
C        5.3487592234    0.4765544700    0.7620567845
C        3.3945584653    0.2445907742   -0.3003654320
C        2.1386443816   -0.3764598304   -0.8111455777
C        0.4182596974   -2.0829144003   -0.3433887575
N        3.7759467857    1.4996846652   -0.4669464992
N        4.3494492045   -0.4407354176    0.4674566392
N        1.6634747682   -1.4061600230   -0.0130035088
O        1.5204512234   -0.0155325409   -1.8059907558
H        5.5583277584    2.5755767081    0.2222545462
H        6.2575174266    0.3089158322    1.3287948528
H        0.1944275889   -2.8501966847    0.4039808270
H        0.4978563510   -2.5663838090   -1.3227990897
H       -0.4097016888   -1.3661427146   -0.3662916198
H        4.3446149034   -1.4356619101    0.6721133152
H        2.0850578031   -1.5385371353    0.8971060447
16   

C        4.9502139347    1.6578513357    0.2657433036
C        5.3902213460    0.4535340125    0.7289002568
C        3.4457440049    0.2042939721   -0.3405223938
C        2.2076256887   -0.4436321883   -0.8725694117
C        0.3995505213   -2.0286110145   -0.3282868532
N        3.7409106592    1.4916661625   -0.3845594771
N        4.4434862550   -0.4912298162    0.3570244418
N        1.6507981480   -1.3610274534   -0.0028496023
O        1.6643689764   -0.1681110945   -1.9359986159
H        5.4670406344    2.6030788110    0.3875661770
H        6.3143509787    0.2887271986    1.2711025939
H        0.1247688966   -2.7264915545    0.4685096906
H        0.5017449878   -2.5925836005   -1.2614655848
H       -0.4046849226   -1.2938311141   -0.4422265473
H        4.4875828575   -1.4991744961    0.4794186666
H        2.0270097050   -1.4126328442    0.9358825492
16   

C        4.8545274652    1.6507164593    0.3420261488
C        5.3947578352    0.4463457003    0.6846914853
C        3.4357236997    0.1489168161   -0.3386515308
C        2.2185095525   -0.5440366870   -0.8785176946
C        0.3433425603   -2.0213266436   -0.2751247371
N        3.6334666034    1.4534098987   -0.2780170278
N        4.5012558466   -0.5299006298    0.2651141728
N        1.5827692643   -1.3330718633    0.0515649966
O        1.7759560913   -0.4091507440   -2.0132883635
H        5.3097509702    2.6170598516    0.5274200777
H        6.3487845150    0.3031589236    1.1791522251
H        0.0234664848   -2.6433901449    0.5664103080
H        0.4858513760   -2.6682437473   -1.1472103971
H       -0.4469958776   -1.2956281037   -0.4947991357
H        4.6096909652   -1.5397576714    0.3090079659
H        1.9042678896   -1.2817791818    1.0111225940
16   

C        4.7886433714    1.6498544713    0.4711234048
C        5.4391554596    0.4656962306    0.6593059371
C        3.4417168515    0.1098057568   -0.2591196885
C        2.2624759378   -0.6234205979   -0.8437305193
C        0.3214995688   -2.0322497718   -0.2965689885
N        3.5462324206    1.4151692403   -0.0926296821
N        4.5935749164   -0.5355404220    0.2010106998
N        1.5021653305   -1.2756062150    0.0902469727
O        2.0410962731   -0.7342336515   -2.0440218933
H        5.1838449258    2.6278514992    0.7216460889
H        6.4335395332    0.3528756467    1.0759151894
H       -0.0944240141   -2.5524511875    0.5717002711
H        0.5779452819   -2.7793211658   -1.0550779923
H       -0.4425788648   -1.3601127210   -0.7013916904
H        4.7767101115   -1.5333236993    0.1315585097
H        1.6964896031   -1.0839257566    1.0666484914
16   

C        4.7727172051    1.6642556410    0.5605656534
C        5.5259013215    0.5273149429    0.5928193900
C        3.4829265686    0.0754595236   -0.1677803410
C        2.3526936735   -0.6885071675   -0.8087449715
C        0.3262436755   -2.0130192505   -0.3508785408
N        3.5081998981    1.3739116539    0.0754409548
N        4.7216675071   -0.5012626038    0.1212272973
N        1.4330520626   -1.1717456771    0.0785593208
O        2.3981728845   -1.1126389691   -1.9582883856
H        5.1139063262    2.6491104500    0.8590002426
H        6.5595172179    0.4640415931    0.9131224747
H       -0.1486462016   -2.4821318319    0.5161860466
H        0.6799577867   -2.8074239870   -1.0164407564
H       -0.4209711817   -1.4115345090   -0.8791564859
H        4.9742925873   -1.4671036326   -0.0736061427
H        1.4716721041   -0.8080938558    1.0246602170
16   

C        4.7297627008    1.6354181319    0.6855152769
C        5.5691679694    0.5677627813    0.5579079071
C        3.5089765870    0.0044672064   -0.0735871949
C        2.4153475424   -0.7846518920   -0.7339572275
C        0.2976874884   -1.9829347055   -0.3348642770
N        3.4558559847    1.2816662283    0.2708790863
N        4.8104368756   -0.4824911966    0.0597737889
N        1.3902791884   -1.1263463176    0.1003718062
O        2.5765251247   -1.3747360872   -1.7973262168
H        5.0176149584    2.6175730163    1.0431688514
H        6.6279323377    0.5651044793    0.7900767197
H       -0.2638929602   -2.3457899294    0.5313393562
H        0.6799173945   -2.8520775218   -0.8803305458
H       -0.3819550643   -1.4236547084   -0.9863467589
H        5.1171028762   -1.4017376024   -0.2507335915
H        1.3513195151   -0.6429555960    0.9918581707
16   

C        4.6986893527    1.5780808190    0.7684724735
C        5.5951045299    0.5841145350    0.5051458167
C        3.5371066733   -0.0768055277   -0.0343336599
C        2.4655950417   -0.8932826960   -0.6819451928
C        0.2638439953   -1.9435649886   -0.3159715091
N        3.4245249438    1.1675542884    0.4095093683
N        4.8737375237   -0.4778921344   -0.0225232843
N        1.3677143191   -1.0938773080    0.1031564785
O        2.6726782913   -1.5929052814   -1.6686624230
H        4.9462084219    2.5490878981    1.1823371282
H        6.6652020952    0.6378364468    0.6691242538
H       -0.3542257576   -2.2100054564    0.5467692262
H        0.6361320876   -2.8699752690   -0.7656448975
H       -0.3586718488   -1.4175560691   -1.0473048786
H        5.2132412996   -1.3526821898   -0.4170793633
H        1.3001835184   -0.5138881046    0.9340179086
16   

C        4.6763924199    1.5234277169    0.8343515328
C        5.6090418240    0.6081804064    0.4423745560
C        3.5610353481   -0.1427786646   -0.0108016826
C        2.5035071606   -0.9922977241   -0.6243145789
C        0.2343891479   -1.9000183801   -0.2871972916
N        3.4060102789    1.0583554817    0.5317606062
N        4.9161666463   -0.4593534794   -0.1115537614
N        1.3555431158   -1.0620168944    0.1079048631
O        2.7267730670   -1.7706120045   -1.5467770323
H        4.8950974251    2.4773251049    1.3008860749
H        6.6829309072    0.7168903496    0.5415902286
H       -0.4231619632   -2.0766052391    0.5694045084
H        0.5852467499   -2.8714556331   -0.6509483174
H       -0.3406728523   -1.4096596236   -1.0795449384
H        5.2754531409   -1.2915855866   -0.5752580968
H        1.2843524904   -0.4070039175    0.8816275330
16   

C        4.6660900617    1.4856448669    0.8907273567
C        5.6129698944    0.6490008963    0.3761319704
C        3.5769968610   -0.1703082301   -0.0072538154
C        2.5293508529   -1.0505446598   -0.5840817702
C        0.2050848376   -1.8263284101   -0.2982714100
N        3.4014719723    0.9772487981    0.6364891848
N        4.9360388020   -0.4116286477   -0.2097360154
N        1.3415912743   -1.0011233169    0.0788877280
O        2.7597400035   -1.8855309865   -1.4538913680
H        4.8702448531    2.4138755320    1.4123768793
H        6.6849442716    0.8038300549    0.4187985848
H       -0.4829537758   -1.9268591849    0.5466269497
H        0.5334417759   -2.8300331197   -0.5880787058
H       -0.3289888778   -1.3702832142   -1.1382717498
H        5.3025841129   -1.2027312528   -0.7359144045
H        1.2753973484   -0.2944796343    0.8071694911
16   

C        4.6710269385    1.4244592889    0.8135022152
C        5.6051639530    0.6301314852    0.2153111751
C        3.5719331028   -0.2383075699   -0.0590719385
C        2.5224963279   -1.1632207415   -0.5525045880
C        0.1494499709   -1.7944140075   -0.2922660176
N        3.4075611273    0.8824392189    0.6328224804
N        4.9213793193   -0.4360196050   -0.3521577618
N        1.3064237372   -0.9701807502    0.0213162391
O        2.7491972966   -2.0807332654   -1.3359332664
H        4.8830186665    2.3444210033    1.3465516681
H        6.6730577138    0.8147302643    0.1937714555
H       -0.4982282409   -1.8808914182    0.5854806555
H        0.4554355397   -2.8049523343   -0.5830421536
H       -0.4199395299   -1.3478306027   -1.1137267830
H        5.2765851290   -1.2160514223   -0.9022928408
H        1.2564592673   -0.1981437868    0.6820898636
16   

C        4.6952778574    1.4614793456    0.8046232736
C        5.6166132781    0.7359333730    0.1074236733
C        3.5961947305   -0.1768895304   -0.1130692496
C        2.5577950162   -1.1330819576   -0.5670933840
C        0.1465699563   -1.6661182915   -0.4126900694
N        3.4404956645    0.8883192009    0.6633734561
N        4.9330740787   -0.3158701002   -0.4864279686
N        1.3119505624   -0.8476541869   -0.1107331554
O        2.8009806226   -2.0931339190   -1.2924757545
H        4.9106425861    2.3528741621    1.3829358988
H        6.6762383952    0.9544384222    0.0411572373
H       -0.4049487813   -1.8854656509    0.5067409397
H        0.4359027850   -2.6212956853   -0.8634246114
H       -0.5121274458   -1.1403785236   -1.1110053844
H        5.2829853869   -1.0639532579   -1.0824890512
H        1.2562558510   -0.0387153647    0.5042486568
16   

C        4.6689114040    1.4313237466    0.8024182101
C        5.5721104739    0.7449482214    0.0444468733
C        3.5596424431   -0.1961683269   -0.1222476130
C        2.5285891396   -1.1854084028   -0.5204617882
C        0.0965376600   -1.6102868562   -0.5654099577
N        3.4205677424    0.8363842567    0.7001405841
N        4.8828189087   -0.3021354622   -0.5511653323
N        1.2586465261   -0.8040161030   -0.2252516832
O        2.7861542742   -2.2109259107   -1.1441266584
H        4.8933413893    2.3079815324    1.3995061928
H        6.6244544481    0.9838987822   -0.0575947110
H       -0.1533252977   -2.2799831463    0.2637552299
H        0.2855117740   -2.2119609066   -1.4607551290
H       -0.7611569126   -0.9630922865   -0.7725426969
H        5.2261204402   -1.0407271385   -1.1626357480
H        1.1752384143    0.0849382768    0.2625615271
16   

C        4.6549740063    1.5239314824    0.8331959694
C        5.5412397204    0.8990576638    0.0052896933
C        3.5629827459   -0.1221022534   -0.0793840855
C        2.5629940109   -1.1690732804   -0.4095087915
C        0.1453280017   -1.6182894407   -0.6065864160
N        3.4304608704    0.8752787027    0.7865086100
N        4.8641929723   -0.1613057479   -0.5809262811
N        1.2717681472   -0.7578005937   -0.2817001897
O        2.8608197251   -2.2400098892   -0.9303203308
H        4.8763504850    2.3920826151    1.4437003812
H        6.5756283105    1.1852872272   -0.1464813766
H       -0.0648914850   -2.2945853685    0.2284250124
H        0.3566295531   -2.2128649748   -1.5016066819
H       -0.7444862021   -1.0132408303   -0.8053416728
H        5.2101268656   -0.8804802122   -1.2135243554
H        1.1440872206    0.1639651125    0.1283813316
16   

C        4.6859598039    1.4894017447    0.8837847340
C        5.5132255824    0.9424517987   -0.0530373200
C        3.5535548279   -0.1174133853   -0.0491424296
C        2.5590459430   -1.1873761687   -0.3365048661
C        0.1574083138   -1.6317645095   -0.6845838772
N        3.4760627884    0.8128176236    0.8941469796
N        4.8115596294   -0.0944853797   -0.6521761555
N        1.2668597236   -0.7527567114   -0.3502165672
O        2.8736454765   -2.2851892924   -0.7863840018
H        4.9399108346    2.3202011029    1.5323893017
H        6.5267312926    1.2622689993   -0.2661628609
H       -0.0980751404   -2.2587897594    0.1759568349
H        0.4148636232   -2.2767737475   -1.5312160626
H       -0.7197790099   -1.0403323685   -0.9640001053
H        5.1272357182   -0.7743794244   -1.3412418071
H        1.1136395162    0.1891984046   -0.0009301212
16   

C        4.7337529535    1.4549381034    0.9497596280
C        5.4795381014    0.9874712715   -0.0924252434
C        3.5484611130   -0.1172586434    0.0247179265
C        2.5552748425   -1.2076892152   -0.2175901739
C        0.1852249806   -1.6695572101   -0.7218513458
N        3.5443931865    0.7478720267    1.0295240666
N        4.7449800147   -0.0285485362   -0.6880688961
N        1.2740826509   -0.7672921664   -0.3805686888
O        2.8848983644   -2.3359100395   -0.5703397335
H        5.0316967323    2.2497725115    1.6242017386
H        6.4630639422    1.3438638730   -0.3762297589
H       -0.1248743602   -2.2358456141    0.1625782401
H        0.4931456531   -2.3710595403   -1.5042322766
H       -0.6717738314   -1.1005632071   -1.0948408755
H        5.0165266493   -0.6658723512   -1.4339078546
H        1.0964248441    0.1978658376   -0.1194435457
16   

C        4.7946656072    1.4075726251    1.0216901218
C        5.4382780392    1.0242440719   -0.1183071056
C        3.5459282549   -0.1260865222    0.1188487462
C        2.5397718985   -1.2212609754   -0.0886865250
C        0.2151521169   -1.6959532545   -0.7598300221
N        3.6298413600    0.6723063237    1.1715854794
N        4.6625867612    0.0330119459   -0.7036325703
N        1.2903313059   -0.7783933421   -0.4148611470
O        2.8647610998   -2.3843386824   -0.3044735082
H        5.1474557228    2.1629256209    1.7147876788
H        6.3835606728    1.4183860246   -0.4732496388
H       -0.1639248572   -2.1871855301    0.1424611689
H        0.5672820755   -2.4600490049   -1.4606897451
H       -0.6060347114   -1.1513751650   -1.2356790119
H        4.8733940084   -0.5513111310   -1.5096100707
H        1.1072228036    0.2091027016   -0.2690711459
16   

C        4.8728793483    1.3131095223    1.0789613867
C        5.3811151376    1.0324570132   -0.1554990565
C        3.5580667180   -0.1884563501    0.2217104678
C        2.5165119499   -1.2627034616    0.0398764768
C        0.2412214685   -1.7171028230   -0.7889941308
N        3.7463317865    0.5402931567    1.3076440882
N        4.5591606000    0.0656706389   -0.7184183778
N        1.3287912553   -0.8083404739   -0.4595645859
O        2.7828742404   -2.4595384037    0.0333019318
H        5.2921023874    2.0252745937    1.7807342820
H        6.2690816417    1.4784403998   -0.5885969258
H       -0.2266485205   -2.0922108201    0.1272937114
H        0.6103884535   -2.5658963453   -1.3741699527
H       -0.5163447255   -1.1977836515   -1.3837959511
H        4.6805631979   -0.4415252420   -1.5917122270
H        1.1843757391    0.1956437614   -0.4606316353
16   

C        4.9088918634    1.2293854463    1.0922195262
C        5.2709046913    1.0536171029   -0.2111847053
C        3.5488199585   -0.2649533940    0.2944957795
C        2.4515522293   -1.2848950335    0.1341041782
C        0.2195614847   -1.6764569881   -0.8232266369
N        3.8334757394    0.4108532980    1.3921617092
N        4.4110107423    0.1022554696   -0.7431710206
N        1.3734538840   -0.8261212921   -0.5750923971
O        2.5324676438   -2.4526361520    0.4971764550
H        5.3906479193    1.9049518407    1.7900341135
H        6.0879665633    1.5606898088   -0.7115631675
H       -0.2840358051   -1.9151711318    0.1195724808
H        0.5287445026   -2.6080882582   -1.3087013377
H       -0.4911514379   -1.1657433783   -1.4801528110
H        4.4283263715   -0.3159994938   -1.6698297783
H        1.3389359591    0.1657172063   -0.7822829114
16   

C        5.0027978194    1.1251512926    1.1192752157
C        5.2175204615    1.0620308986   -0.2259893700
C        3.5691913204   -0.3222545370    0.3569981397
C        2.4314409051   -1.2928350116    0.2278915038
C        0.2355055961   -1.6485401562   -0.8276881437
N        3.9686570098    0.2737745894    1.4658413354
N        4.3069828302    0.1468643897   -0.7367205594
N        1.4489899161   -0.8691132509   -0.6365441346
O        2.3280827393   -2.3443311609    0.8487223478
H        5.5557930690    1.7478650802    1.8134235829
H        5.9710853622    1.6208072331   -0.7691926485
H       -0.3311124029   -1.7038630721    0.1079489596
H        0.4830772745   -2.6638197105   -1.1551861321
H       -0.3952066345   -1.1843737109   -1.5920293360
H        4.2226213776   -0.1866508507   -1.6933538254
H        1.5152204579    0.0751383609   -0.9981295183
16   

C        5.1143282712    1.0741161714    1.1294263707
C        5.2033120058    1.1018767887   -0.2306442986
C        3.5879986625   -0.3018244100    0.4075761471
C        2.4358386728   -1.2509323584    0.3205404692
C        0.3008204710   -1.6882434562   -0.8319929190
N        4.1040013460    0.2101701810    1.5112074467
N        4.2351447426    0.2330378392   -0.7153529523
N        1.5228885528   -0.9171695976   -0.6611770699
O        2.2413629774   -2.2006267657    1.0703227480
H        5.7385563293    1.6418845015    1.8101499688
H        5.9128941768    1.6896438175   -0.8017690801
H       -0.3050271843   -1.6469385945    0.0795621895
H        0.5395642490   -2.7337151736   -1.0540574722
H       -0.2881601289   -1.2848946674   -1.6613517745
H        4.0700368808   -0.0402906746   -1.6801900899
H        1.6295687895   -0.0220938234   -1.1225648490
16   

C        5.1720358333    1.0055679474    1.1436782905
C        5.1603088889    1.1350263268   -0.2127061333
C        3.5382372493   -0.2581225233    0.4426320914
C        2.3686705432   -1.1811280171    0.3785961021
C        0.3147057793   -1.7215089145   -0.8782730789
N        4.1632910409    0.1452717391    1.5358146059
N        4.1267148274    0.3374672997   -0.6843133932
N        1.5305477178   -0.9419754838   -0.7000397653
O        2.1020159098   -2.0492027542    1.2016936929
H        5.8664108169    1.4984174652    1.8147471541
H        5.8475958748    1.7416484750   -0.7913099369
H       -0.3404732996   -1.6086718333   -0.0077477633
H        0.5591422573   -2.7814771256   -1.0049267217
H       -0.2255732847   -1.3824562441   -1.7673883923
H        3.8950498747    0.1354186534   -1.6524529455
H        1.6723614801   -0.0962034866   -1.2368022396
16   

C        5.0834911606    1.3611885821   -0.2698331836
C        5.2529343834    0.4072235491    0.6871299306
C        3.2538098348    0.1682860226   -0.2934775001
C        1.8966973811   -0.3547988696   -0.6143295699
C        0.3674708282   -2.2780471207   -0.3637995776
N        3.8459737994    1.2043607713   -0.8645657948
N        4.0992648127   -0.3645242282    0.6950871489
N        1.6456277818   -1.6279538838   -0.1148627204
O        1.0445632660    0.2366355284   -1.2674759350
H        5.8044398679    2.1298517576   -0.5243257861
H        6.1276233861    0.3004179481    1.3184875182
H        0.3575036539   -3.2774919116    0.0815686057
H        0.1933168287   -2.3747236992   -1.4409148600
H       -0.4470809900   -1.6939277822    0.0774411832
H        3.8648491993   -1.1051550712    1.3481330885
H        2.4153102274   -2.1619297187    0.2635769122
16   

C        5.0683571536    1.6191907794    0.0278796946
C        5.2975945744    0.5658742331    0.8594308196
C        3.3389142602    0.3012334834   -0.1957897220
C        2.0515908334   -0.2837419663   -0.6657058408
C        0.4727365663   -2.1720701831   -0.4434735419
N        3.8600386838    1.4424515585   -0.6179987562
N        4.2104456707   -0.2886076765    0.7374377841
N        1.7083713091   -1.4962943763   -0.0755069432
O        1.3159364109    0.2185217113   -1.5080834441
H        5.7322379229    2.4648088688   -0.1119956763
H        6.1743330049    0.4398791517    1.4843482237
H        0.3892960234   -3.1252129369    0.0874380413
H        0.4557408236   -2.3731763428   -1.5200038906
H       -0.3912371347   -1.5510499627   -0.1835467317
H        4.0844726641   -1.1788047316    1.2060890503
H        2.2945979418   -1.8828253044    0.6487862018
