24

C      0.30491   -1.83527    1.79227
C      0.22189   -0.48452    1.43174
C      1.49249   -2.34435    2.30686
C      1.33172    0.34741    1.59007
C      2.62790   -1.52650    2.49005
C      2.51534   -0.17493    2.11348
C      3.97853   -5.57904    5.43803
C      5.06075   -4.70865    5.04582
C      3.86798   -2.08576    3.03414
N      4.43151   -6.40084    6.35363
N      6.13643   -5.01808    5.72194
N      3.85883   -3.19652    3.68805
N      2.70281   -5.61829    4.90975
N      5.05191   -3.70727    4.09079
O      5.77027   -6.07587    6.53139
Br     3.99219    1.04118    2.33028
H     -0.55156   -2.48990    1.65766
H     -0.69866   -0.07818    1.02226
H      1.57527   -3.39739    2.55641
H      1.27942    1.39526    1.31370
H      4.79685   -1.53425    2.86430
H      2.39661   -4.71896    4.55483
H      2.02866   -6.08752    5.50430
H      5.89609   -3.13829    4.02005
