37

C     -2.13928    5.01317    1.95797
C      3.44759    5.09859    3.89138
C      1.74054    6.78244    4.31434
C      4.36830    5.82771    4.64908
C      2.65433    7.51484    5.07683
C      2.13985    5.57945    3.70739
C      3.94709    7.01390    5.25300
C     -0.46743    3.21846    1.35574
C     -0.42756    1.36034    0.20388
C     -0.81065    4.47505    2.02140
C     -0.85846    0.20637   -0.63882
C     -2.07127   -0.55670   -0.06711
C     -3.41855    0.16161   -0.23221
C     -3.55956    1.51010    0.48957
C     -2.60118    2.60322    0.00401
N     -3.22849    5.42790    1.90345
N      0.72811    2.64712    1.50511
N      0.74968    1.48078    0.78712
N      0.01616    5.19673    2.75232
N     -1.23482    2.42903    0.51930
N      1.25843    4.80639    2.93855
I      5.59002    8.53496    5.82874
H      3.75075    4.15922    3.43478
H      0.72522    7.13894    4.18127
H      5.38178    5.46057    4.77063
H      2.34848    8.45014    5.53374
H     -1.08440    0.54706   -1.65834
H      0.00696   -0.45671   -0.70839
H     -2.13241   -1.52298   -0.57982
H     -1.88757   -0.77627    0.99153
H     -3.60861    0.31594   -1.30348
H     -4.21299   -0.50409    0.12398
H     -4.57808    1.88306    0.33498
H     -3.43409    1.38668    1.57176
H     -2.54577    2.60982   -1.09023
H     -2.95865    3.58029    0.31253
H      1.56292    3.90997    2.52090
