44

C     -2.98188    2.13983   -5.56614
C     -1.89321    1.74882   -6.34648
C     -3.17778    1.51351   -4.33273
C     -1.05590    0.74134   -5.85330
C     -2.27945    0.52140   -3.91928
C     -0.58346    2.15786   -0.24836
C     -0.35627    1.20237    0.92832
C     -0.07527   -1.22488    1.65121
C     -1.70393    1.65827   -1.16086
C      1.39991   -1.16187    2.09495
C     -1.35592   -0.62402   -0.46507
C      1.17263   -0.45757   -0.23688
C     -0.18948   -0.25502    0.45404
C      3.99573   -2.39989    0.10398
C     -2.43068   -0.17559   -2.58330
N     -1.23565    0.13622   -4.67404
N     -1.44513    0.28629   -1.60443
N      2.07867   -0.58005    0.91622
O      4.30795   -0.64642    2.05708
O      4.10352    0.19603   -0.35490
S      3.71332   -0.71995    0.71952
H     -3.66278    2.91539   -5.90785
H     -1.69455    2.20332   -7.31294
H     -4.01229    1.78943   -3.69351
H     -0.20168    0.40299   -6.43864
H     -0.83645    3.15687    0.12393
H      0.33389    2.26107   -0.83669
H      0.51763    1.51277    1.51040
H     -1.22393    1.24581    1.60031
H     -0.32232   -2.24103    1.32264
H     -0.75813   -0.96495    2.46459
H     -2.67600    1.71999   -0.62755
H     -1.77808    2.30262   -2.04119
H      1.55813   -0.51336    2.95953
H      1.78913   -2.15447    2.34918
H     -1.21308   -1.64137   -0.84643
H     -2.29332   -0.62890    0.12980
H      1.15236   -1.37115   -0.85074
H      1.48079    0.37033   -0.87125
H      5.07319   -2.51822   -0.02407
H      3.62352   -3.11438    0.84014
H      3.48706   -2.51411   -0.85456
H     -3.46549   -0.04994   -2.21141
H     -2.26489   -1.24425   -2.74670
