36

C      1.96309   -7.98495    1.87513
C      3.51705   -6.61640    2.19775
C      2.83788   -3.83218    1.06601
C      2.70508   -3.52365    3.35442
C      0.10335   -2.92766   -0.49175
C      0.58671   -1.46909   -0.41742
C     -0.54202   -8.18819    2.38683
C     -0.41190   -7.99080    0.90637
C      0.35550   -3.44151    0.92967
C      1.86823   -1.54141    0.44070
C      0.70229   -8.70121    1.67254
C      1.72354   -2.81383    1.32857
C      4.23212   -5.32426    2.50243
N      2.14407   -6.71672    2.14726
N      4.16283   -7.73439    1.97697
N      1.87355   -2.59951    2.76815
N      3.36017   -4.18869    2.29243
O      3.18620   -4.27326   -0.01587
O      2.89005   -3.73778    4.53983
O      3.11737   -8.66769    1.76301
H     -0.94456   -3.02035   -0.79326
H      0.71488   -3.49241   -1.20272
H      0.76887   -1.02690   -1.40075
H     -0.17194   -0.85460    0.08252
H     -0.40176   -7.32459    3.02833
H     -1.23466   -8.93863    2.75459
H     -1.00940   -8.60545    0.24043
H     -0.18307   -6.99481    0.54221
H     -0.40964   -3.04902    1.61161
H      0.36285   -4.52975    1.02976
H      2.74633   -1.65114   -0.20088
H      2.02138   -0.65879    1.06598
H      0.80985   -9.77090    1.53150
H      4.53601   -5.30401    3.55174
H      5.12033   -5.23932    1.87340
H      1.12319   -2.22319    3.33368
