31

C      6.39802    1.21804    3.98923
C      6.18175    2.55625    4.39856
C      6.53813    0.90552    2.65102
C      8.32091   -2.63361   -2.63684
C      6.09630    3.56665    3.46336
C      8.19255   -2.90623   -3.99450
C      6.26433   -1.36644   -2.69205
C      6.21212    3.99263   -0.08112
C      6.46105    1.92765    1.66615
C      7.36895   -1.84414   -1.96610
C      6.22511    3.27852    2.07986
C      7.09869   -2.41279   -4.71488
C      6.12626   -1.64799   -4.05291
C      6.57539    1.75244    0.24378
C      7.54156   -1.60733   -0.51851
N      6.10580    4.31339    1.19010
N      6.44360    2.76636   -0.60510
N      7.26759   -0.56330    0.19096
N      6.77579    0.54628   -0.41056
Cl     6.97442   -2.77437   -6.41399
Cl     4.72461   -1.03913   -4.89287
H      6.45572    0.42966    4.73491
H      6.07813    2.78530    5.45621
H      6.71574   -0.11507    2.34315
H      9.17367   -3.02861   -2.09119
H      5.92311    4.59996    3.74802
H      8.93621   -3.50511   -4.51046
H      5.47339   -0.81119   -2.19949
H      6.11081    4.79734   -0.80775
H      7.98936   -2.41848    0.05336
H      6.86084    0.66581   -1.42120
