30

C     -3.69509   -3.57854   -0.35160
C     -3.13385   -2.33923   -0.04858
C     -3.06383   -4.46431   -1.23139
C     -1.25876   -2.83919   -1.52080
C      3.58012    1.42012   -2.34494
C      1.50992    1.38036   -1.03652
C     -1.91054   -1.96365   -0.63333
C      2.37769    0.76509   -1.92445
C     -1.85027   -4.06751   -1.79852
C      3.87245    2.65731   -1.86840
C      1.84444    2.70694   -0.53853
C      0.26159    0.83111   -0.52980
C      5.07930    3.47058   -2.20719
N     -0.18893   -0.33262   -0.86492
N     -1.35919   -0.72498   -0.32459
O      1.19341    3.37578    0.23954
O      3.04748    3.28327   -1.00229
O      2.08891   -0.46792   -2.40120
Cl    -1.03141   -5.16123   -2.91014
H     -4.64015   -3.86207    0.10372
H     -3.63905   -1.66331    0.63783
H     -3.49709   -5.42945   -1.46983
H     -0.31748   -2.54670   -1.96881
H      4.26137    0.93959   -3.04056
H     -0.27778    1.48269    0.16604
H      4.77873    4.42393   -2.65440
H      5.72497    2.93633   -2.90664
H      5.64719    3.69962   -1.29934
H     -1.85443   -0.11278    0.32309
H      2.79352   -0.75141   -3.00718
