37

C      0.51776   -4.46493    0.34733
C      0.32267   -3.25641   -0.31804
C      1.50954   -4.51807    1.33108
C     -0.71410   -1.87337   -3.93174
C      1.13149   -2.16087   -0.01062
C     -0.43602   -0.91236   -3.01512
C      2.10260   -2.31757    1.00357
C     -1.44214    0.06230   -2.61399
C     -2.97647   -1.08289   -4.21280
C      1.21414    0.30551    0.12155
C      2.67858    0.39337    0.53125
C     -2.23629   -3.01446   -5.51533
C     -3.78012    0.82381   -2.95408
N      2.27155   -3.47164    1.66050
N     -1.93667   -1.97690   -4.51945
N     -2.68349   -0.10352   -3.27189
N      0.94696   -0.90982   -0.66730
O     -1.27139    0.94442   -1.78167
O     -4.07001   -1.18185   -4.75097
O      1.87966   -2.05179   -2.78171
O      1.76792    0.49198   -2.62936
S      3.18581   -1.03176    1.57267
S      1.21009   -0.82657   -2.33886
H     -0.08859   -5.33722    0.12337
H     -0.45012   -3.15131   -1.07385
H      1.69904   -5.43776    1.88187
H      0.03964   -2.59972   -4.21902
H      0.55799    0.26382    0.99514
H      0.92649    1.16892   -0.47566
H      3.31111    0.45238   -0.35637
H      2.84977    1.28411    1.14238
H     -3.07283   -3.62709   -5.17489
H     -1.34943   -3.63483   -5.64480
H     -2.50768   -2.55176   -6.46587
H     -4.09791    1.34037   -3.86157
H     -3.40733    1.53410   -2.22010
H     -4.62872    0.26688   -2.55205
