19

C     -0.33020    0.06862   -0.21609
C      1.82996   -1.09409   -0.07097
C      0.66729   -0.45611    1.96859
C      0.73408   -0.49773    0.56416
C      2.85963   -1.61350    0.70773
C      2.82424   -1.61138    2.11266
C      1.69634   -1.01591    2.70599
C      4.66908   -1.40397    3.59867
N     -1.19518    0.53112   -0.84420
N      4.03117   -2.16798    0.00817
O      5.14303   -1.91807    0.47820
O      3.81529   -2.81433   -1.01981
O      3.75802   -2.24734    2.85369
F      1.61927   -1.01061    4.05144
H      1.89305   -1.14660   -1.15179
H     -0.18081   -0.01259    2.47969
H      5.30685   -2.08910    4.15634
H      4.12079   -0.75852    4.29035
H      5.27122   -0.81403    2.90313
