27

C      0.41259    5.02447    3.72524
C      0.57437   -2.09979    1.59417
C      0.31652   -0.84301    2.14591
C      1.21380   -3.09151    2.34222
C      1.31422   -1.56755    4.23530
C      0.97440    4.64733    2.47665
C      0.69454   -0.56131    3.47278
C      1.57423   -2.81073    3.66307
C      1.17620    3.39129    1.95348
C      1.86527    4.90235    0.53249
C      0.42735    0.73855    4.12621
C      2.46665    5.35605   -0.74821
N     -0.04544    5.36802    4.74127
N      1.42927    5.58782    1.53272
N      0.50895    1.92925    3.64191
N      0.90624    2.10457    2.34701
O      1.73852    3.52340    0.72156
Cl     2.36134   -4.04972    4.62189
H      0.26782   -2.31540    0.57441
H     -0.22551   -0.10379    1.56427
H      1.41937   -4.06822    1.91621
H      1.59718   -1.37501    5.26606
H      0.14443    0.71686    5.17728
H      3.48286    4.96560   -0.86517
H      1.87398    5.01514   -1.60338
H      2.50054    6.44588   -0.74871
H      1.40651    1.36380    1.85452
