15

C      1.22959    0.01114    1.57053
C     -0.00495   -0.28074    0.98435
C      1.58518   -0.58281    2.78712
C     -0.83336   -1.22057    1.61532
C      0.65091   -1.47184    3.32557
C     -3.20503   -2.67054    2.08001
N     -0.49264   -1.79277    2.77733
F     -3.38716   -2.01137    3.23308
F     -2.58817   -3.82986    2.34971
F     -4.42242   -2.95840    1.56328
S     -2.35743   -1.67668    0.79471
I      0.84927   -1.91210    5.60496
H      1.90276    0.72044    1.09606
H     -0.31885    0.21343    0.06948
H      2.53184   -0.37909    3.27333
