27

C     -1.99900    4.08608    3.02877
C      2.95044   -0.92287    0.63841
C      2.16885    0.00473    1.33056
C      2.79759   -2.29380    0.86015
C      1.08000   -1.81191    2.51407
C     -1.68369    3.97106    1.64887
C      1.21633   -0.43353    2.27051
C      1.86020   -2.72192    1.80428
C     -0.87637    3.05836    1.01064
C     -1.70330    4.45989   -0.44859
C      0.37627    0.49615    3.05667
C     -1.89722    5.00298   -1.81792
N     -2.27505    4.21008    4.15509
N     -2.19330    4.85267    0.67653
N     -0.19944    1.58786    2.68830
N     -0.07637    2.01193    1.39577
O     -0.86946    3.34542   -0.31926
Cl     1.66791   -4.43789    2.10818
H      3.69324   -0.57778   -0.07540
H      2.33795    1.06641    1.17961
H      3.40031   -3.01817    0.32187
H      0.36318   -2.16836    3.24805
H      0.17751    0.22993    4.09345
H     -0.94283    5.31008   -2.25781
H     -2.34700    4.25377   -2.47771
H     -2.55810    5.86814   -1.75766
H      0.20490    1.36050    0.66226
