40

C      0.61766    3.34646    5.01898
C      2.27113   -2.81964    5.54011
C      3.71530   -1.40530    4.23232
C      1.91241   -1.73148    6.33477
C      3.37445   -0.31169    5.02922
C      3.16232   -2.67266    4.46682
C      2.45853   -0.47427    6.07227
C      0.63722    0.96869    4.31582
C      0.41757   -0.15782    2.46417
C      1.01994    1.99452    5.30451
C      0.54353   -0.59882    1.04413
C      1.99995   -0.77588    0.57498
C      2.75682    0.53941    0.33945
C      3.00689    1.40490    1.58343
C      1.75580    1.98848    2.24826
C      3.47801   -3.83730    3.55913
N      0.29876    4.42063    4.69335
N     -0.06900   -0.11270    4.58921
N     -0.19964   -0.82927    3.42058
N      1.60634    1.82285    6.46021
N      0.96298    0.99397    2.97455
N      2.07585    0.65171    6.87998
H      1.82247   -3.79076    5.73464
H      4.42767   -1.27383    3.42073
H      1.17403   -1.83761    7.12317
H      3.80846    0.66696    4.84214
H      0.00473   -1.54682    0.97325
H      0.03033    0.11189    0.38189
H      2.53752   -1.39348    1.30480
H      1.98766   -1.33801   -0.36575
H      3.72837    0.30577   -0.11186
H      2.21182    1.13632   -0.40499
H      3.57022    0.83624    2.33055
H      3.63591    2.25452    1.29264
H      2.04341    2.75791    2.96433
H      1.11321    2.47312    1.50447
H      2.68620   -3.96519    2.81093
H      4.41974   -3.68632    3.02352
H      3.55131   -4.77462    4.11874
H      2.51890    0.73871    7.78656
