35

C      6.81298   -9.76045   -2.34075
C      5.97554   -7.45246   -2.17606
C      4.59236   -9.29467   -1.38296
C      4.98490   -6.55232   -1.79078
C      3.59963   -8.38772   -1.02335
C      0.26735   -1.68117    0.22248
C      1.19281   -1.96492    1.21998
C      1.08220   -3.53911   -1.07035
C      5.78694   -8.82877   -1.96145
C      3.79612   -7.01169   -1.20464
C      0.19891   -2.46805   -0.94083
C      2.01904   -3.84891   -0.06952
C      2.06847   -3.04728    1.08510
C      2.65752   -6.08159   -0.88040
C      4.15005   -4.77329    0.63949
C      3.67763   -4.47904    2.05758
C     -0.79863   -2.14734   -2.03092
N      7.64752  -10.51489   -2.64494
N      2.97660   -4.89838   -0.23265
O      1.52023   -6.37608   -1.23908
O      2.96787   -3.24361    2.10986
H      6.89091   -7.10065   -2.64172
H      4.44935  -10.35988   -1.23024
H      5.12814   -5.48931   -1.96284
H      2.65900   -8.73564   -0.60778
H     -0.41219   -0.84126    0.34809
H      1.25543   -1.36561    2.12363
H      1.04131   -4.16179   -1.95527
H      4.79554   -3.96043    0.28745
H      4.72138   -5.69938    0.63436
H      3.03247   -5.29359    2.41256
H      4.52598   -4.37130    2.73731
H     -0.53724   -1.21535   -2.54609
H     -0.83991   -2.94244   -2.78005
H     -1.80643   -2.02076   -1.62116
