16   

C        5.0202470689    1.6401478667    0.1071852754
C        5.3180347468    0.5088499730    0.8043075431
C        3.3530568224    0.2730439071   -0.2439690917
C        2.0817715281   -0.3296392602   -0.7324156873
C        0.4484402748   -2.1483156227   -0.3783310924
N        3.8079575174    1.4804326344   -0.5366910435
N        4.2730214240   -0.3802497027    0.5944242943
N        1.6820491508   -1.4600941398   -0.0278889350
O        1.4027916670    0.0992509159   -1.6584560830
H        5.6395097916    2.5287050947    0.0586359394
H        6.2145032882    0.3527241259    1.3934339568
H        0.2815667526   -2.9939356593    0.2957783704
H        0.5047691826   -2.5284577938   -1.4038515858
H       -0.4041594297   -1.4653011265   -0.2981566274
H        4.2229191554   -1.3464916677    0.9007297568
H        2.1569620521   -1.6884181476    0.8341382550
16   

C        4.9861846063    1.6555195886    0.1830430043
C        5.3487569427    0.4765559632    0.7620608375
C        3.3945584653    0.2445907742   -0.3003654320
C        2.1386443816   -0.3764598304   -0.8111455777
C        0.4182578527   -2.0829120245   -0.3433867114
N        3.7759467857    1.4996846652   -0.4669464992
N        4.3494474644   -0.4407342618    0.4674599229
N        1.6634747682   -1.4061600230   -0.0130035088
O        1.5204472987   -0.0155280180   -1.8059866794
H        5.5583264191    2.5755775798    0.2222565768
H        6.2575141197    0.3089180015    1.3288007518
H        0.1944261871   -2.8501947696    0.4039825371
H        0.4978515918   -2.5663805283   -1.3227977283
H       -0.4097024507   -1.3661390072   -0.3662869938
H        4.3446128115   -1.4356604326    0.6721180907
H        2.0850595461   -1.5385388874    0.8971049529
16   

C        4.9502122329    1.6578520418    0.2657462362
C        5.3902181197    0.4535353083    0.7289060899
C        3.4457440049    0.2042939721   -0.3405223938
C        2.2076256887   -0.4436321883   -0.8725694117
C        0.3995478973   -2.0286072939   -0.3282844741
N        3.7409106592    1.4916661625   -0.3845594771
N        4.4434837985   -0.4912288139    0.3570290850
N        1.6507981480   -1.3610274534   -0.0028496023
O        1.6643632074   -0.1681039850   -1.9359938315
H        5.4670387928    2.6030795900    0.3875691331
H        6.3143462762    0.2887290693    1.2711111201
H        0.1247666390   -2.7264883294    0.4685117645
H        0.5017384762   -2.5925787918   -1.2614642958
H       -0.4046859931   -1.2938251976   -0.4422209748
H        4.4875798938   -1.4991732774    0.4794252004
H        2.0270119426   -1.4126352580    0.9358814932
16   

C        4.8545255155    1.6507168123    0.3420298121
C        5.3947540769    0.4463463051    0.6846987882
C        3.4357236997    0.1489168161   -0.3386515308
C        2.2185095525   -0.5440366870   -0.8785176946
C        0.3433390577   -2.0213213633   -0.2751226266
N        3.6334666034    1.4534098987   -0.2780170278
N        4.5012529186   -0.5299001582    0.2651200339
N        1.5827692643   -1.3330718633    0.0515649966
O        1.7759484920   -0.4091408091   -2.0132842214
H        5.3097489011    2.6170602575    0.5274237556
H        6.3487790694    0.3031597854    1.1791628611
H        0.0234628448   -2.6433850881    0.5664122001
H        0.4858432338   -2.6682375597   -1.1472097229
H       -0.4469972321   -1.2956195108   -0.4947938036
H        4.6096873131   -1.5397571661    0.3090162529
H        1.9042706882   -1.2817824217    1.0111218090
16   

C        4.7886421871    1.6498542961    0.4711260485
C        5.4391531377    0.4656958536    0.6593112024
C        3.4417168515    0.1098057568   -0.2591196885
C        2.2624759378   -0.6234205979   -0.8437305193
C        0.3214973715   -2.0322465095   -0.2965686487
N        3.5462324206    1.4151692403   -0.0926296821
N        4.5935730911   -0.5355407395    0.2010149123
N        1.5021653305   -1.2756062150    0.0902469727
O        2.0410917783   -0.7342274080   -2.0440216338
H        5.1838437040    2.6278513308    0.7216487677
H        6.4335361829    0.3528751089    1.0759228699
H       -0.0944265764   -2.5524479155    0.5717004424
H        0.5779406161   -2.7793176647   -1.0550787252
H       -0.4425798775   -1.3601072289   -0.7013898824
H        4.7767077920   -1.5333242345    0.1315645953
H        1.6964912960   -1.0839277691    1.0666485429
16   

C        4.7727181983    1.6642561939    0.5605627896
C        5.5259032704    0.5273160579    0.5928136440
C        3.4829265686    0.0754595236   -0.1677803410
C        2.3526936735   -0.6885071675   -0.8087449715
C        0.3262457943   -2.0130224937   -0.3508777275
N        3.5081998981    1.3739116539    0.0754409548
N        4.7216690064   -0.5012616538    0.1212227192
N        1.4330520626   -1.1717456771    0.0785593208
O        2.3981770889   -1.1126457262   -1.9582857507
H        5.1139073328    2.6491110108    0.8589973405
H        6.5595200203    0.4640431501    0.9131140595
H       -0.1486443633   -2.4821336019    0.5161875023
H        0.6799621736   -2.8074283783   -1.0164373596
H       -0.4209695025   -1.4115405246   -0.8791582116
H        4.9742943179   -1.4671022097   -0.0736128210
H        1.4716703733   -0.8080916344    1.0246594379
16   

C        4.7297635073    1.6354192463    0.6855118718
C        5.5691696117    0.5677650030    0.5579010172
C        3.5089765870    0.0044672064   -0.0735871949
C        2.4153475424   -0.7846518920   -0.7339572275
C        0.2976891542   -1.9829375467   -0.3348629450
N        3.4558559847    1.2816662283    0.2708790863
N        4.8104381489   -0.4824893253    0.0597682482
N        1.3902791884   -1.1263463176    0.1003718062
O        2.5765285523   -1.3747425138   -1.7973221704
H        5.0176156845    2.6175741451    1.0431654666
H        6.6279346677    0.5651076216    0.7900667031
H       -0.2638915747   -2.3457911871    0.5313411670
H        0.6799207576   -2.8520813131   -0.8803265022
H       -0.3819536361   -1.4236602850   -0.9863475301
H        5.1171041041   -1.4017349862   -0.2507414323
H        1.3513181035   -0.6429535963    0.9918570285
16   

C        4.6986897941    1.5780820730    0.7684694960
C        5.5951054230    0.5841170211    0.5051398438
C        3.5371066733   -0.0768055277   -0.0343336599
C        2.4655950417   -0.8932826960   -0.6819451928
C        0.2638452352   -1.9435673805   -0.3159699752
N        3.4245249438    1.1675542884    0.4095093683
N        4.8737381947   -0.4778900727   -0.0225280567
N        1.3677143191   -1.0938773080    0.1031564785
O        2.6726806034   -1.5929102427   -1.6686584568
H        4.9462088063    2.5490891735    1.1823341364
H        6.6652033480    0.6378399742    0.6691155902
H       -0.3542245174   -2.2100066318    0.5467711331
H        0.6361346063   -2.8699782288   -0.7656411181
H       -0.3586710157   -1.4175608862   -1.0473047417
H        5.2132417561   -1.3526794477   -0.4170858707
H        1.3001825799   -0.5138866174    0.9340167979
16   

C        4.6763925470    1.5234288784    0.8343492403
C        5.6090420847    0.6081827131    0.4423699639
C        3.5610353481   -0.1427786646   -0.0108016826
C        2.5035071606   -0.9922977241   -0.6243145789
C        0.2343900013   -1.9000202753   -0.2871957484
N        3.4060102789    1.0583554817    0.5317606062
N        4.9161668249   -0.4593516035   -0.1115573948
N        1.3555431158   -1.0620168944    0.1079048631
O        2.7267745663   -1.7706155693   -1.5467736873
H        4.8950975196    2.4773262811    1.3008837685
H        6.6829312600    0.7168936431    0.5415835601
H       -0.4231606134   -2.0766067199    0.5694065151
H        0.5852485512   -2.8714576305   -0.6509455717
H       -0.3406728693   -1.4096632622   -1.0795438408
H        5.2754530952   -1.2915831925   -0.5752628526
H        1.2843519512   -0.4070029346    0.8816266543
16   

C        4.6660900064    1.4856457637    0.8907258390
C        5.6129697911    0.6490026787    0.3761289440
C        3.5769968610   -0.1703082301   -0.0072538154
C        2.5293508529   -1.0505446598   -0.5840817702
C        0.2050853115   -1.8263295789   -0.2982703138
N        3.4014719723    0.9772487981    0.6364891848
N        4.9360387068   -0.4116272181   -0.2097384002
N        1.3415912743   -1.0011233169    0.0788877280
O        2.7597408690   -1.8855332851   -1.4538889454
H        4.8702447728    2.4138764404    1.4123753494
H        6.6849441102    0.8038326093    0.4187941996
H       -0.4829532353   -1.9268596619    0.5466281805
H        0.5334427971   -2.8300344731   -0.5880763404
H       -0.3289886975   -1.3702857566   -1.1382712142
H        5.3025838669   -1.2027294782   -0.7359174215
H        1.2753970626   -0.2944790144    0.8071688657
16   

C        4.6710268615    1.4244596865    0.8135015628
C        5.6051637915    0.6301323037    0.2153098346
C        3.5719331028   -0.2383075699   -0.0590719385
C        2.5224963279   -1.1632207415   -0.5525045880
C        0.1494501550   -1.7944145460   -0.2922653144
N        3.4075611273    0.8824392189    0.6328224804
N        4.9213791779   -0.4360189257   -0.3521588601
N        1.3064237372   -0.9701807502    0.0213162391
O        2.7491976695   -2.0807343269   -1.3359319187
H        4.8830185963    2.3444213808    1.3465510461
H        6.6730574794    0.8147314268    0.1937695409
H       -0.4982278504   -1.8808916797    0.5854815427
H        0.4554359507   -2.8049529373   -0.5830409813
H       -0.4199396672   -1.3478317430   -1.1137261864
H        5.2765849174   -1.2160506111   -0.9022941731
H        1.2564592047   -0.1981435534    0.6820895871
16   

C        4.6952778835    1.4614792754    0.8046233425
C        5.6166133107    0.7359332498    0.1074237984
C        3.5961947305   -0.1768895304   -0.1130692496
C        2.5577950162   -1.1330819576   -0.5670933840
C        0.1465699266   -1.6661182070   -0.4126901897
N        3.4404956645    0.8883192009    0.6633734561
N        4.9330740913   -0.3158701832   -0.4864278868
N        1.3119505624   -0.8476541869   -0.1107331554
O        2.8009806232   -2.0931339322   -1.2924757370
H        4.9106426251    2.3528740767    1.3829359849
H        6.6762384463    0.9544382300    0.0411574319
H       -0.4049489612   -1.8854654750    0.5067407505
H        0.4359027329   -2.6212956483   -0.8634246443
H       -0.5121273320   -1.1403784185   -1.1110056248
H        5.2829854036   -1.0639534109   -1.0824888822
H        1.2562558523   -0.0387153673    0.5042486604
16   

C        4.6689116071    1.4313231694    0.8024190207
C        5.5721108851    0.7449471137    0.0444484226
C        3.5596424431   -0.1961683269   -0.1222476130
C        2.5285891396   -1.1854084028   -0.5204617882
C        0.0965375486   -1.6102863051   -0.5654109226
N        3.4205677424    0.8363842567    0.7001405841
N        4.8828192321   -0.3021363134   -0.5511641300
N        1.2586465261   -0.8040161030   -0.2252516832
O        2.7861541027   -2.2109249971   -1.1441282366
H        4.8933415861    2.3079809081    1.3995070706
H        6.6244550403    0.9838971727   -0.0575924617
H       -0.1533263600   -2.2799825330    0.2637540282
H        0.2855120531   -2.2119604178   -1.4607559708
H       -0.7611565677   -0.9630913346   -0.7725442912
H        5.2261208304   -1.0407282372   -1.1626342073
H        1.1752384618    0.0849380743    0.2625619057
16   

C        4.6549745114    1.5239304312    0.8331973417
C        5.5412407365    0.8990555658    0.0052924171
C        3.5629827459   -0.1221022534   -0.0793840855
C        2.5629940109   -1.1690732804   -0.4095087915
C        0.1453279519   -1.6182887646   -0.6065880720
N        3.4304608704    0.8752787027    0.7865086100
N        4.8641937626   -0.1613073831   -0.5809241204
N        1.2717681472   -0.7578005937   -0.2817001897
O        2.8608195327   -2.2400084266   -0.9303234705
H        4.8763509684    2.3920815523    1.4437017776
H        6.5756297709    1.1852841639   -0.1464774463
H       -0.0648921968   -2.2945855782    0.2284224746
H        0.3566298240   -2.2128633494   -1.5016088906
H       -0.7444859789   -1.0132396877   -0.8053431323
H        5.2101277441   -0.8804823208   -1.2135216145
H        1.1440872131    0.1639647541    0.1283821380
16   

C        4.6859606996    1.4894001870    0.8837864758
C        5.5132273805    0.9424486639   -0.0530338356
C        3.5535548279   -0.1174133853   -0.0491424296
C        2.5590459430   -1.1873761687   -0.3365048661
C        0.1574083801   -1.6317637057   -0.6845862913
N        3.4760627884    0.8128176236    0.8941469796
N        4.8115610442   -0.0944878608   -0.6521733271
N        1.2668597236   -0.7527567114   -0.3502165672
O        2.8736454159   -2.2851874026   -0.7863887080
H        4.9399117094    2.3201995491    1.5323910472
H        6.5267338606    1.2622644399   -0.2661578576
H       -0.0980765165   -2.2587896800    0.1759534659
H        0.4148644727   -2.2767722446   -1.5312187703
H       -0.7197783048   -1.0403308950   -0.9640031050
H        5.1272372977   -0.7743827309   -1.3412381027
H        1.1136394060    0.1891978922   -0.0009287810
16   

C        4.7337543636    1.4549359723    0.9497616669
C        5.4795409422    0.9874669852   -0.0924211828
C        3.5484611130   -0.1172586434    0.0247179265
C        2.5552748425   -1.2076892152   -0.2175901739
C        0.1852253655   -1.6695565116   -0.7218545033
N        3.5443931865    0.7478720267    1.0295240666
N        4.7449822535   -0.0285519272   -0.6880655857
N        1.2740826509   -0.7672921664   -0.3805686888
O        2.8848986694   -2.3359079806   -0.5703461364
H        5.0316980864    2.2497703715    1.6242038112
H        6.4630680087    1.3438576099   -0.3762239277
H       -0.1248746261   -2.2358471171    0.1625734482
H        0.4931466931   -2.3710568799   -1.5042369324
H       -0.6717732221   -1.1005616785   -1.0948432793
H        5.0165292555   -0.6658770562   -1.4339033039
H        1.0964244902    0.1978652575   -0.1194416313
16   

C        4.7946675296    1.4075700082    1.0216921338
C        5.4382818799    1.0242388165   -0.1183030926
C        3.5459282549   -0.1260865222    0.1188487462
C        2.5397718985   -1.2212609754   -0.0886865250
C        0.2151528846   -1.6959527779   -0.7598337751
N        3.6298413600    0.6723063237    1.1715854794
N        4.6625897794    0.0330077834   -0.7036292813
N        1.2903313059   -0.7783933421   -0.4148611470
O        2.8647621961   -2.3843369108   -0.3044815992
H        5.1474576176    2.1629229666    1.7147897461
H        6.3835662009    1.4183783142   -0.4732438538
H       -0.1639248158   -2.1871877214    0.1424556589
H        0.5672838176   -2.4600464112   -1.4606953101
H       -0.6060337011   -1.1513736844   -1.2356820332
H        4.8733976931   -0.5513171277   -1.5096052946
H        1.1072221148    0.2091021899   -0.2690685188
16   

C        4.8728810470    1.3131074140    1.0789625557
C        5.3811185396    1.0324527421   -0.1554966835
C        3.5580667180   -0.1884563501    0.2217104678
C        2.5165119499   -1.2627034616    0.0398764768
C        0.2412225488   -1.7171029336   -0.7889975006
N        3.7463317865    0.5402931567    1.3076440882
N        4.5591632896    0.0656672209   -0.7184164151
N        1.3287912553   -0.8083404739   -0.4595645859
O        2.7828763322   -2.4595379171    0.0332939736
H        5.2921040561    2.0252724959    1.7807354652
H        6.2690865549    1.4784341355   -0.5885935057
H       -0.2266476724   -2.0922139940    0.1272889734
H        0.6103906412   -2.5658944247   -1.3741755631
H       -0.5163437889   -1.1977827379   -1.3837982415
H        4.6805666795   -0.4415303009   -1.5917092126
H        1.1843747300    0.1956436230   -0.4606289610
16   

C        4.9088900749    1.2293875054    1.0922188206
C        5.2709011552    1.0536212183   -0.2111861650
C        3.5488199585   -0.2649533940    0.2944957795
C        2.4515522293   -1.2848950335    0.1341041782
C        0.2195600019   -1.6764558755   -0.8232235432
N        3.8334757394    0.4108532980    1.3921617092
N        4.4110079245    0.1022587908   -0.7431722258
N        1.3734538840   -0.8261212921   -0.5750923971
O        2.5324645042   -2.4526343404    0.4971829584
H        5.3906460886    1.9049539159    1.7900334225
H        6.0879614485    1.5606958126   -0.7115652913
H       -0.2840364144   -1.9151676154    0.1195766479
H        0.5287411779   -2.6080884514   -1.3086969157
H       -0.4911530578   -1.1657425396   -1.4801497840
H        4.4283225848   -0.3159946557   -1.6698316826
H        1.3389371812    0.1657167743   -0.7822851521
16   

C        5.0027950520    1.1251544310    1.1192747827
C        5.2175150496    1.0620371370   -0.2259903466
C        3.5691913204   -0.3222545370    0.3569981397
C        2.4314409051   -1.2928350116    0.2278915038
C        0.2355026728   -1.6485368280   -0.8276832649
N        3.9686570098    0.2737745894    1.4658413354
N        4.3069785719    0.1468693986   -0.7367213751
N        1.4489899161   -0.8691132509   -0.6365441346
O        2.3280761343   -2.3443248382    0.8487319613
H        5.5557901895    1.7478682402    1.8134232200
H        5.9710774957    1.6208163245   -0.7691940974
H       -0.3311134214   -1.7038555150    0.1079552405
H        0.4830704936   -2.6638180181   -1.1551791110
H       -0.3952097976   -1.1843704794   -1.5920243173
H        4.2226157860   -0.1866437351   -1.6933552532
H        1.5152227485    0.0751368971   -0.9981328670
16   

C        5.1143259461    1.0741188849    1.1294264492
C        5.2033075558    1.1018821217   -0.2306442788
C        3.5879986625   -0.3018244100    0.4075761471
C        2.4358386728   -1.2509323584    0.3205404692
C        0.3008180025   -1.6882403071   -0.8319896220
N        4.1040013460    0.2101701810    1.5112074467
N        4.2351413242    0.2330420652   -0.7153529896
N        1.5228885528   -0.9171695976   -0.6611770699
O        2.2413575128   -2.2006207008    1.0703290198
H        5.7385538267    1.6418872958    1.8101501396
H        5.9128876667    1.6896516266   -0.8017690735
H       -0.3050280355   -1.6469323906    0.0795664221
H        0.5395585405   -2.7337130213   -1.0540529761
H       -0.2881628659   -1.2848911840   -1.6613481218
H        4.0700324868   -0.0402847007   -1.6801904463
H        1.6295706339   -0.0220951996   -1.1225670402
16   

C        5.1720342260    1.0055699695    1.1436786483
C        5.1603058099    1.1350303326   -0.2127055530
C        3.5382372493   -0.2581225233    0.4426320914
C        2.3686705432   -1.1811280171    0.3785961021
C        0.3147040365   -1.7215066330   -0.8782712798
N        4.1632910409    0.1452717391    1.5358146059
N        4.1267124594    0.3374705002   -0.6843129989
N        1.5305477178   -0.9419754838   -0.7000397653
O        2.1020119517   -2.0491980275    1.2016973994
H        5.8664090952    1.4984195268    1.8147476011
H        5.8475913667    1.7416543383   -0.7913091069
H       -0.3404744416   -1.6086668353   -0.0077458646
H        0.5591382598   -2.7814755524   -1.0049233886
H       -0.2255746999   -1.3824542507   -1.7673869019
H        3.8950468501    0.1354232685   -1.6524526764
H        1.6723630289   -0.0962047986   -1.2368038483
16   

C        5.0834917806    1.3611877278   -0.2698342715
C        5.2529356849    0.4072217951    0.6871278042
C        3.2538098348    0.1682860226   -0.2934775001
C        1.8966973811   -0.3547988696   -0.6143295699
C        0.3674715100   -2.2780478568   -0.3638011756
N        3.8459737994    1.2043607713   -0.8645657948
N        4.0992659207   -0.3645256800    0.6950854528
N        1.6456277818   -1.6279538838   -0.1148627204
O        1.0445647106    0.2366337992   -1.2674793881
H        5.8044404506    2.1298509267   -0.5243269051
H        6.1276252884    0.3004153837    1.3184844220
H        0.3575039251   -3.2774922051    0.0815679873
H        0.1933193974   -2.3747255389   -1.4409166623
H       -0.4470812868   -1.6939283943    0.0774376246
H        3.8648510532   -1.1051573325    1.3481307245
H        2.4153096937   -2.1619290131    0.2635789334
16   

C        5.0683570545    1.6191908797    0.0278798538
C        5.2975943433    0.5658744651    0.8594311856
C        3.3389142602    0.3012334834   -0.1957897220
C        2.0515908334   -0.2837419663   -0.6657058408
C        0.4727365182   -2.1720701439   -0.4434734573
N        3.8600386838    1.4424515585   -0.6179987562
N        4.2104454623   -0.2886074714    0.7374381065
N        1.7083713091   -1.4962943763   -0.0755069432
O        1.3159362305    0.2185218812   -1.5080831852
H        5.7322378417    2.4648089540   -0.1119955526
H        6.1743326647    0.4398794863    1.4843487636
H        0.3892961933   -3.1252130922    0.0874378130
H        0.4557405120   -2.3731759398   -1.5200038714
H       -0.3912371621   -1.5510500798   -0.1835462038
H        4.0844722884   -1.1788043654    1.2060896358
H        2.2945982170   -1.8828255758    0.6487858321
