45   

C       -2.7926087049   -1.1500393599   -0.8875073410
C       -1.7908347968   -0.1098514829   -0.6154376565
C       -0.6460659178   -0.6449272535   -0.0525968149
C       -4.0937516341   -0.9902378502   -1.5272059254
C       -2.3850354158   -2.3896165820   -0.5046305649
C       -4.4824443205   -3.3175210297   -1.2264687743
C       -7.2922861034   -1.8417457363   -1.0625456904
C       -7.9017777202   -0.7340216601   -0.6047004323
C       -2.0294883166    1.3570350546   -0.8871880662
C       -8.6139601185   -0.7484001083    0.7275725271
C       -7.7936434624    0.5872185207   -1.3287165825
C       -0.5643122828   -5.5979929739   -3.2133613774
C        0.6034701851    0.0770549632    0.3753660584
C       -6.2911451490   -1.9302288140   -2.1857226981
C       -2.7649232872   -4.8454499310   -0.2952150272
C       -2.2262404741   -5.6266368031   -1.4943193804
N       -4.9487867365   -2.0732306652   -1.6220510376
N       -3.2133037458   -3.5045828536   -0.6797394460
O       -4.4040924483    0.0809059050   -2.0289712118
O       -5.2124755703   -4.2935101041   -1.3587381088
O        1.7100438256   -0.4735616830   -0.3364273849
O       -1.0690536456   -4.9743819501   -2.0297434661
S       -0.7641698445   -2.3897398143    0.1806597942
H       -7.4690021340   -2.7710791159   -0.5316397007
H       -3.0136816986    1.6507849513   -0.5102686520
H       -1.2916473914    1.9942283824   -0.3971005181
H       -1.9993205400    1.5445867717   -1.9645690941
H       -8.2944628215    0.1017910807    1.3379888564
H       -9.6950999262   -0.6843165347    0.5722921414
H       -8.3944628896   -1.6658426354    1.2824388503
H       -8.4347309659    0.5800587560   -2.2147504670
H       -8.1147981022    1.4083669210   -0.6811989995
H       -6.7674757366    0.7967923598   -1.6332870167
H        0.3494880694   -5.0893103091   -3.5350776153
H       -1.3005151590   -5.5360320633   -4.0210060441
H       -0.3279417854   -6.6497413925   -3.0227390886
H        0.5395248916    1.1475153337    0.1690535934
H        0.7550009008   -0.0524635846    1.4516320335
H       -6.3598445489   -1.0607313007   -2.8472705867
H       -6.5293199881   -2.7945044028   -2.8157659240
H       -3.5996197109   -5.4001232411    0.1460780868
H       -1.9935599209   -4.7931124056    0.4778103392
H       -3.0052525839   -5.7082643329   -2.2598974968
H       -1.9587200468   -6.6373044413   -1.1700142437
H        1.4975364545   -0.5482869509   -1.2841302879
45   

C       -2.8770958233   -1.2080246673   -0.8729797680
C       -1.8974655543   -0.1584017331   -0.5579076683
C       -0.7673813271   -0.6850859444    0.0414659296
C       -4.1808469638   -1.0536894580   -1.5107282319
C       -2.4588506840   -2.4479773992   -0.5004260136
C       -4.5151829573   -3.4016534249   -1.3008132649
C       -7.3296439464   -1.9005556582   -1.1261654184
C       -7.8734741803   -0.7660393769   -0.6482644156
C       -2.1235921598    1.3027946543   -0.8677739979
C       -8.2849444352   -0.6582940078    0.8009652283
C       -7.8846936381    0.4965667799   -1.4741985910
C       -0.5074649627   -5.5904585605   -3.1988920679
C        0.4543555649    0.0427622830    0.5313725080
C       -6.3334065207   -2.0220733350   -2.2529780626
C       -2.8026956791   -4.9132710750   -0.3361364983
C       -2.2170105868   -5.6694569810   -1.5291329027
N       -4.9957980886   -2.1582359792   -1.6797463347
N       -3.2617898866   -3.5744488561   -0.7155176647
O       -4.5467349032    0.0423872774   -1.9122188084
O       -5.2216974469   -4.3881815579   -1.4747779882
O        1.5480097591   -0.2983264198   -0.3181183452
O       -1.0561342263   -4.9911386115   -2.0222929531
S       -0.8630187271   -2.4341512914    0.2410904758
H       -7.4536435697   -2.8003156999   -0.5331270355
H       -2.9664499107    1.6787360478   -0.2798466095
H       -1.2470371062    1.9144869309   -0.6485840424
H       -2.3571765561    1.4271587325   -1.9292778392
H       -7.9387663845    0.2901707274    1.2229531974
H       -9.3748444852   -0.7036313695    0.8835333881
H       -7.8535378629   -1.4723182571    1.3916306745
H       -8.6728701374    1.1692848207   -1.1228632860
H       -6.9261976592    1.0155963406   -1.3861523432
H       -8.0799845512    0.2751057525   -2.5273081578
H        0.4057251726   -5.0617536285   -3.4884425016
H       -1.2218427929   -5.5310426190   -4.0260977035
H       -0.2578177376   -6.6402880533   -3.0147230380
H        0.3054788588    1.1248071883    0.5240875928
H        0.6765564733   -0.2558527985    1.5607018845
H       -6.3857554640   -1.1591506614   -2.9244256602
H       -6.5803122041   -2.8936532950   -2.8694039144
H       -3.6408036773   -5.4870428482    0.0731262068
H       -2.0550750846   -4.8598078328    0.4597510985
H       -2.9722369300   -5.7535150473   -2.3179206906
H       -1.9420884699   -6.6798928770   -1.2103468418
H        1.2708880367   -0.2767481662   -1.2515723356
45   

C       -2.9296386415   -1.2411499557   -0.8747122506
C       -1.9656703924   -0.1867907148   -0.5285690113
C       -0.8400730040   -0.7112373316    0.0810861835
C       -4.2264315161   -1.0899384541   -1.5272840667
C       -2.5046312954   -2.4823970167   -0.5140248363
C       -4.5380695346   -3.4448469062   -1.3608624556
C       -7.3522931982   -1.9263558098   -1.1733119564
C       -7.8220156806   -0.7752251964   -0.6518178656
C       -2.1991981562    1.2765355321   -0.8224912495
C       -7.9168183328   -0.5734496941    0.8415170302
C       -7.9524396794    0.4507847513   -1.5209223619
C       -0.4828619626   -5.5736641354   -3.2189623813
C        0.3661981292    0.0215196747    0.6010548907
C       -6.3611734221   -2.0661127679   -2.3058903756
C       -2.8285946635   -4.9525944658   -0.3852006619
C       -2.2166289519   -5.6898690661   -1.5766995146
N       -5.0245424787   -2.2010440412   -1.7303962438
N       -3.2928693176   -3.6135254569   -0.7573474356
O       -4.6042967481    0.0105542452   -1.9051695416
O       -5.2334379851   -4.4350498705   -1.5567996433
O        1.4778297839   -0.2999849750   -0.2326000246
O       -1.0539562391   -4.9955122011   -2.0424914674
S       -0.9210156690   -2.4639375751    0.2530861876
H       -7.4352450225   -2.8119305928   -0.5524674179
H       -3.0418458374    1.6426548117   -0.2281179641
H       -1.3240272444    1.8892413584   -0.6004270192
H       -2.4360940776    1.4114722643   -1.8819397234
H       -7.4739858063    0.3868339187    1.1229984365
H       -8.9651901436   -0.5831953644    1.1536001639
H       -7.3834963706   -1.3656092850    1.3759259174
H       -8.7709768022    1.0800709582   -1.1586978207
H       -7.0279677665    1.0350245957   -1.4921533691
H       -8.1718004062    0.1779364945   -2.5572734004
H        0.4294130806   -5.0327049743   -3.4880172606
H       -1.1857845685   -5.5094977462   -4.0555745334
H       -0.2261473755   -6.6235727659   -3.0452942878
H        0.2075783288    1.1022248221    0.6037087442
H        0.5727784675   -0.2872054219    1.6306547199
H       -6.4094497951   -1.2048833587   -2.9802395313
H       -6.6154614554   -2.9403114239   -2.9155516438
H       -3.6683511561   -5.5381677932    0.0034793740
H       -2.0948323762   -4.9018841034    0.4236612006
H       -2.9579938040   -5.7714223546   -2.3787940484
H       -1.9378926148   -6.7014370374   -1.2649076483
H        1.2170988742   -0.2705316031   -1.1705503273
45   

C       -2.9899110078   -1.2519402395   -0.8589740875
C       -2.0435177300   -0.1885982310   -0.4924586283
C       -0.9195409562   -0.7037611198    0.1279938052
C       -4.2836503778   -1.1116739667   -1.5204069419
C       -2.5528615495   -2.4907621468   -0.5034603515
C       -4.5595008640   -3.4741317868   -1.3884438891
C       -7.3797965378   -1.9313141983   -1.2037020041
C       -7.7810164913   -0.7606775121   -0.6586433069
C       -2.2865116389    1.2737609723   -0.7830678936
C       -7.5627591681   -0.4541455488    0.8034938741
C       -8.1042978833    0.4068147456   -1.5584737821
C       -0.4628943017   -5.5484758021   -3.1980434174
C        0.2703552774    0.0403549856    0.6690250161
C       -6.3914154749   -2.1092003013   -2.3367333142
C       -2.8489794597   -4.9656008202   -0.3907193517
C       -2.2130135560   -5.6926503258   -1.5758063627
N       -5.0569789871   -2.2340763813   -1.7552123722
N       -3.3225595419   -3.6304572539   -0.7654146177
O       -4.6872591206   -0.0092871255   -1.8660333073
O       -5.2391899105   -4.4716459003   -1.6009772383
O        1.3982958839   -0.2652896172   -0.1485750525
O       -1.0523180337   -4.9837121093   -2.0241493528
S       -0.9798962587   -2.4585959878    0.2846413378
H       -7.4120628220   -2.7909498745   -0.5430851614
H       -3.1177880435    1.6387147405   -0.1722570278
H       -1.4072441630    1.8875822802   -0.5806499783
H       -2.5441412946    1.4078862970   -1.8377308382
H       -6.4925126004   -0.4722849526    1.0307036562
H       -7.9566406721    0.5346884555    1.0574199766
H       -8.0687271327   -1.1996276497    1.4239498001
H       -9.0856958801    0.8145300871   -1.2987410968
H       -7.3526011093    1.1931227203   -1.4349856397
H       -8.1295904155    0.1113867858   -2.6110832327
H        0.4456706156   -4.9954909925   -3.4548858351
H       -1.1581528358   -5.4876584243   -4.0412913319
H       -0.1958536197   -6.5963330126   -3.0276073317
H        0.0990352931    1.1191701818    0.6735577904
H        0.4646752687   -0.2702732476    1.7004471032
H       -6.4310572418   -1.2612700390   -3.0282810235
H       -6.6534855473   -2.9950514019   -2.9259072704
H       -3.6877100984   -5.5612585583   -0.0153178280
H       -2.1269461092   -4.9096609936    0.4282797854
H       -2.9427452097   -5.7804285584   -2.3878558094
H       -1.9269362021   -6.7018543010   -1.2630111126
H        1.1516251787   -0.2361719534   -1.0903211494
45   

C       -3.0264000973   -1.2598686795   -0.8633566121
C       -2.0901234759   -0.1929262164   -0.4817451114
C       -0.9731840416   -0.7038975172    0.1549521005
C       -4.3107701874   -1.1246548970   -1.5441359415
C       -2.5893455711   -2.4970950563   -0.5021894414
C       -4.5795871438   -3.4881238886   -1.4141540629
C       -7.4066680982   -1.9621556499   -1.2489227611
C       -7.7223388319   -0.8104249921   -0.6036181701
C       -2.3371778549    1.2683950272   -0.7738789497
C       -7.2294656337   -0.5097572625    0.7919206408
C       -8.1086943069    0.3877378808   -1.4392571860
C       -0.4574815521   -5.5391758314   -3.1805668421
C        0.2058803666    0.0436918204    0.7149565110
C       -6.4077186245   -2.1315629033   -2.3786375390
C       -2.8753784369   -4.9736448897   -0.3972435578
C       -2.2228040846   -5.6960993362   -1.5761152997
N       -5.0767052506   -2.2500724764   -1.7881491775
N       -3.3501724615   -3.6399072684   -0.7756280502
O       -4.7134782389   -0.0240986267   -1.8967966840
O       -5.2531013656   -4.4882421553   -1.6342486096
O        1.3541666021   -0.2816870445   -0.0659338757
O       -1.0603721811   -4.9811819946   -2.0102712437
S       -1.0284499857   -2.4591713362    0.3089797598
H       -7.4781257372   -2.8608545065   -0.6458899327
H       -3.1841516364    1.6257141397   -0.1803755516
H       -1.4673632675    1.8883185793   -0.5506629212
H       -2.5730478736    1.4030911379   -1.8335661213
H       -6.6260653151    0.4030533182    0.8006705371
H       -8.0792704108   -0.3795342774    1.4681216360
H       -6.6081945309   -1.3300054594    1.1643054201
H       -9.1465069585    0.6623257500   -1.2293066054
H       -7.4668294159    1.2436940731   -1.2081753335
H       -8.0230429055    0.1812728899   -2.5096244510
H        0.4514286613   -4.9818020531   -3.4264560792
H       -1.1447513161   -5.4776777064   -4.0302938571
H       -0.1881636764   -6.5866864633   -3.0115887097
H        0.0412007001    1.1232919029    0.6965348231
H        0.3704811434   -0.2504451535    1.7563428133
H       -6.4512322196   -1.2824469861   -3.0685878697
H       -6.6594490910   -3.0185680209   -2.9706089997
H       -3.7158634287   -5.5734239389   -0.0324504017
H       -2.1630408703   -4.9160832215    0.4300728913
H       -2.9429418769   -5.7859893240   -2.3964666923
H       -1.9356776895   -6.7044834425   -1.2616359150
H        1.1346442327   -0.2633798217   -1.0146598168
45   

C       -3.0643343620   -1.2258548472   -0.9199059425
C       -2.1359104650   -0.1561621949   -0.5272737653
C       -1.0378620659   -0.6610604655    0.1463460930
C       -4.3299668927   -1.0970543185   -1.6364876325
C       -2.6402943315   -2.4590567455   -0.5303167328
C       -4.6087344374   -3.4577696242   -1.4791193110
C       -7.4436038697   -1.9519709347   -1.3959383502
C       -7.6799501561   -0.8742902265   -0.5961909169
C       -2.3731446601    1.3013031790   -0.8451874449
C       -6.9845601792   -0.6726639680    0.7301888047
C       -8.1587345767    0.3833343962   -1.2816683023
C       -0.4491937058   -5.5335006412   -3.1210376161
C        0.1280353375    0.0903758376    0.7286894850
C       -6.4111635456   -2.1132073830   -2.5014135988
C       -2.9329559882   -4.9340256088   -0.4034419184
C       -2.2529092735   -5.6705467374   -1.5579242360
N       -5.0927278747   -2.2237863968   -1.8826624826
N       -3.3961526041   -3.6039036321   -0.8082761634
O       -4.7222468433   -0.0006946228   -2.0131024937
O       -5.2786296563   -4.4595610485   -1.7033276575
O        1.3026278297   -0.2747440783    0.0066359906
O       -1.0790372281   -4.9621407429   -1.9715464418
S       -1.1019425081   -2.4140192267    0.3221166233
H       -7.6272819253   -2.9066977614   -0.9152467163
H       -3.2390960327    1.6654871546   -0.2841432916
H       -1.5114533172    1.9245584723   -0.6010400981
H       -2.5745069809    1.4224998428   -1.9136087275
H       -6.3381179737    0.2097978998    0.6990504788
H       -7.7251676916   -0.5436904066    1.5247076189
H       -6.3624997777   -1.5403089863    0.9703157918
H       -9.2248374813    0.5281273753   -1.0847910227
H       -7.6149535526    1.2604583450   -0.9173431419
H       -8.0112299387    0.3261311415   -2.3644284426
H        0.4668447990   -4.9807470243   -3.3503460118
H       -1.1153690174   -5.4791471065   -3.9878803986
H       -0.1866956036   -6.5798385356   -2.9349138230
H       -0.0203580724    1.1707172861    0.6684651795
H        0.2466006729   -0.1714516687    1.7848626236
H       -6.4547239977   -1.2612161806   -3.1886898821
H       -6.6392241549   -3.0023326920   -3.0998435112
H       -3.7831184680   -5.5285766866   -0.0527613546
H       -2.2410285526   -4.8683406721    0.4404085654
H       -2.9529193807   -5.7686842035   -2.3945982019
H       -1.9751983462   -6.6757659113   -1.2253547250
H        1.1233002012   -0.2807209418   -0.9506714022
45   

C       -2.7033822542   -1.0284651357   -0.3954493128
C       -1.6189999781   -0.0394964683   -0.3160673459
C       -0.4350787852   -0.6193766662    0.1036295123
C       -4.0891794717   -0.8087957474   -0.7993482342
C       -2.3016299760   -2.2792934007   -0.0399975204
C       -4.5155204303   -3.1243214812   -0.4395247170
C       -7.2667905037   -1.3441393991   -0.1030883946
C       -8.4009235497   -0.5940718594   -0.1939306861
C       -1.8028463075    1.4174498129   -0.6698336506
C       -9.7661127209   -1.1833961121   -0.4744361635
C       -8.2239383181    0.8720717596   -0.5083235302
C       -1.0054679744   -5.6637751485   -2.8638178157
C        0.8979857084    0.0393374246    0.3306708104
C       -6.3512485593   -1.6852881003   -1.2584106772
C       -2.7559007116   -4.7100260318    0.2938762028
C       -2.4286326256   -5.5445513010   -0.9457670598
N       -4.9789115212   -1.8670626008   -0.7942270173
N       -3.1950282426   -3.3569262404   -0.0586952812
O       -4.4640574684    0.2991691913   -1.1592787919
O       -5.2955987024   -4.0698006145   -0.4560665826
O        1.8062524948   -0.4331339352   -0.6624113829
O       -1.3319903712   -4.9633664690   -1.6604262783
S       -0.6019326859   -2.3474401688    0.4100522051
H       -7.3548390049   -2.1961161700    0.5622402874
H       -2.4881621127    1.8869430790    0.0423234230
H       -0.8610039367    1.9683411795   -0.6623540588
H       -2.2294599708    1.5064005923   -1.6733320148
H      -10.5080269136   -0.3992375334   -0.6536320993
H       -9.7202397211   -1.8308991968   -1.3552012820
H      -10.0958089748   -1.7796044037    0.3814994446
H       -8.8925195871    1.1781077764   -1.3190816720
H       -8.4472329099    1.4722806775    0.3781785988
H       -7.1968501153    1.0881127454   -0.8206834297
H       -0.1193335421   -5.2138823564   -3.3217419452
H       -1.8341801560   -5.6046232970   -3.5764509927
H       -0.7898722531   -6.7157317764   -2.6507585540
H        0.8218290576    1.1273912780    0.2729736690
H        1.2723783682   -0.2159218639    1.3270366658
H       -6.4066579517   -0.9027320229   -2.0234554376
H       -6.7131659749   -2.5970533148   -1.7465424261
H       -3.5434329647   -5.2139269982    0.8639596615
H       -1.8810762814   -4.6787984667    0.9487899711
H       -3.3112155109   -5.6068168634   -1.5912976382
H       -2.1637452317   -6.5592126280   -0.6317022193
H        1.3777475360   -0.4402502583   -1.5369722016
45   

C       -2.7104597120   -1.0483860223   -0.4347899000
C       -1.6316940330   -0.0548329825   -0.3372779517
C       -0.4514909519   -0.6305049360    0.0984457111
C       -4.0903545309   -0.8341491482   -0.8611457373
C       -2.3088210043   -2.2980571203   -0.0755684782
C       -4.5138995683   -3.1507158524   -0.5068594118
C       -7.2821257198   -1.4247477250   -0.2036384064
C       -8.3521866338   -0.5912627550   -0.2664945321
C       -1.8180990245    1.4024951787   -0.6882480259
C       -9.7753604488   -1.0971456640   -0.3293707029
C       -8.1216603751    0.8355709067   -0.7044129486
C       -0.9683800102   -5.6645057041   -2.8985927007
C        0.8753519799    0.0332126048    0.3467169571
C       -6.3444621395   -1.7197311094   -1.3495399044
C       -2.7572169995   -4.7316939958    0.2437747247
C       -2.4118147276   -5.5603791578   -0.9948955216
N       -4.9775119525   -1.8947002543   -0.8661669057
N       -3.1975252912   -3.3791285443   -0.1093612155
O       -4.4605155508    0.2707585851   -1.2346480181
O       -5.2895806837   -4.0995916462   -0.5362660064
O        1.8007984238   -0.4348062266   -0.6325067085
O       -1.3091939958   -4.9721689333   -1.6944769658
S       -0.6155286844   -2.3599220370    0.3989406476
H       -7.4309923256   -2.3055781543    0.4115558449
H       -2.5270270569    1.8621489326    0.0070292352
H       -0.8819955717    1.9618080748   -0.6508933700
H       -2.2176494252    1.4931317171   -1.7026892826
H      -10.4825858003   -0.2689604024   -0.4367571891
H       -9.8945814364   -1.7732563880   -1.1812955327
H      -10.0185959666   -1.6416096802    0.5878483930
H       -8.7822154536    1.0909007669   -1.5389507486
H       -8.3275872436    1.5154420761    0.1272474849
H       -7.0883719247    0.9965726289   -1.0261463663
H       -0.0786709494   -5.2096936697   -3.3445705482
H       -1.7897675270   -5.6031150762   -3.6194739515
H       -0.7523755380   -6.7171970094   -2.6896122611
H        0.7961503251    1.1209981256    0.2886665247
H        1.2352092276   -0.2214805466    1.3485672884
H       -6.3988773771   -0.9264274141   -2.1030494708
H       -6.6822476828   -2.6274568373   -1.8619196734
H       -3.5494879108   -5.2407178977    0.8026204028
H       -1.8903621399   -4.6993775699    0.9091401464
H       -3.2864518290   -5.6239718268   -1.6510283559
H       -2.1464238111   -6.5750729098   -0.6813766375
H        1.3863463142   -0.4415937765   -1.5138211292
45   

C       -2.7442858445   -1.0449582804   -0.4306032740
C       -1.6735517555   -0.0444869876   -0.3154785616
C       -0.5006867539   -0.6102536518    0.1518947831
C       -4.1136425926   -0.8421166829   -0.8943530157
C       -2.3450137399   -2.2893148351   -0.0516255619
C       -4.5359102930   -3.1562118746   -0.5261580008
C       -7.3268703128   -1.5100313932   -0.2841902109
C       -8.3277996070   -0.6008733767   -0.2881335321
C       -1.8614436910    1.4097314264   -0.6787112044
C       -9.7770317908   -0.9995108564   -0.1330395164
C       -8.0566288797    0.7993501291   -0.7823873187
C       -0.9333347825   -5.6570434825   -2.8309421303
C        0.8167073634    0.0623493912    0.4256931457
C       -6.3571727435   -1.7427652317   -1.4155981647
C       -2.7876555827   -4.7230253437    0.2725355785
C       -2.4114173044   -5.5564423853   -0.9538803691
N       -4.9981103648   -1.9051887925   -0.9045637108
N       -3.2274347153   -3.3750183104   -0.0979509323
O       -4.4743312824    0.2548466155   -1.2985631494
O       -5.3052791101   -4.1098467025   -0.5678451614
O        1.7673196699   -0.4094163992   -0.5272566243
O       -1.2977539014   -4.9654455219   -1.6333563034
S       -0.6628437132   -2.3381419623    0.4624994742
H       -7.5222351703   -2.4145855941    0.2817309937
H       -2.6039217508    1.8632320214   -0.0151075973
H       -0.9346534883    1.9804883619   -0.6032027834
H       -2.2196869936    1.4926246490   -1.7091363089
H      -10.4255407808   -0.1180389593   -0.1266917408
H      -10.0764822694   -1.6487213372   -0.9612417783
H       -9.9190100478   -1.5402869306    0.8073986179
H       -8.5972216144    0.9795564133   -1.7167771316
H       -8.3916662529    1.5269987181   -0.0373634357
H       -6.9904268681    0.9666560948   -0.9578670982
H       -0.0391594026   -5.1974984479   -3.2629123533
H       -1.7431726563   -5.6013107691   -3.5652354476
H       -0.7146530555   -6.7081889755   -2.6170660741
H        0.7340287432    1.1491602259    0.3560799287
H        1.1539778291   -0.1818144036    1.4379645445
H       -6.4133472831   -0.9296799502   -2.1473895425
H       -6.6593222332   -2.6425946493   -1.9630141785
H       -3.5889815528   -5.2331568851    0.8172685168
H       -1.9353263016   -4.6821432873    0.9559521418
H       -3.2717342115   -5.6288730080   -1.6277942885
H       -2.1466311501   -6.5677665256   -0.6292116896
H        1.3743172734   -0.4244333697   -1.4182518731
45   

C       -2.7081130564   -1.1038187932   -0.5708500268
C       -1.6417189771   -0.1034267573   -0.4203717401
C       -0.4801185385   -0.6722963947    0.0706533492
C       -4.0664019702   -0.8977933140   -1.0646911536
C       -2.3167786056   -2.3512401571   -0.1935224620
C       -4.4951283572   -3.2154684477   -0.7271307138
C       -7.2849762164   -1.6028919288   -0.5073886239
C       -8.2142093244   -0.6281207268   -0.4328694689
C       -1.8215284479    1.3538655066   -0.7752805504
C       -9.6361699694   -0.9280679397   -0.0197569185
C       -7.9081992488    0.7457451305   -0.9768471910
C       -0.8510975978   -5.6920415076   -2.9762278371
C        0.8289396047   -0.0005106602    0.3833550180
C       -6.3013169311   -1.7928653341   -1.6318915110
C       -2.7651135291   -4.7879962309    0.0991345149
C       -2.3628227768   -5.6117807182   -1.1254160825
N       -4.9497274349   -1.9611499873   -1.1035240605
N       -3.1968075068   -3.4371822063   -0.2705083929
O       -4.4185254105    0.2025343512   -1.4675128927
O       -5.2623656313   -4.1692758800   -0.7959562595
O        1.8009369440   -0.4540981684   -0.5567257847
O       -1.2353106149   -5.0151171728   -1.7764745706
S       -0.6475786391   -2.4031658053    0.3610319705
H       -7.5040881936   -2.5168164371    0.0343228031
H       -2.5759801834    1.8027584196   -0.1221343822
H       -0.8955988095    1.9227833321   -0.6780164209
H       -2.1600117846    1.4456249165   -1.8116065571
H      -10.1887201571   -0.0059924735    0.1840468742
H      -10.1483899422   -1.4732142454   -0.8181930064
H       -9.6452691201   -1.5410860442    0.8865873267
H       -8.1193564992    0.7802666870   -2.0498791979
H       -8.5183400728    1.5036958442   -0.4768524217
H       -6.8573595555    1.0012106551   -0.8133654456
H        0.0501570764   -5.2274799775   -3.3876108454
H       -1.6485996888   -5.6271406775   -3.7231721376
H       -0.6361473383   -6.7457717010   -2.7715098247
H        0.7439657357    1.0870591592    0.3295872043
H        1.1454387431   -0.2599438201    1.3985342386
H       -6.3515713802   -0.9571665317   -2.3380320316
H       -6.5879196715   -2.6779307193   -2.2108360878
H       -3.5779986651   -5.3020753519    0.6226226827
H       -1.9275425165   -4.7526304783    0.8008483096
H       -3.2087742266   -5.6792066106   -1.8177918875
H       -2.1044474499   -6.6255206466   -0.8031595369
H        1.4262781103   -0.4577385587   -1.4557040310
45   

C       -2.7144137825   -1.1471341966   -0.6605133242
C       -1.6590110811   -0.1404508225   -0.4776540123
C       -0.5063844187   -0.7042888432    0.0394855943
C       -4.0616929965   -0.9471198088   -1.1858482763
C       -2.3241253286   -2.3940656175   -0.2805814114
C       -4.4820615767   -3.2700049164   -0.8750283877
C       -7.2827707336   -1.7144298619   -0.6877526828
C       -8.1476402178   -0.6959022256   -0.5233769872
C       -1.8384717573    1.3175425549   -0.8299669647
C       -9.4861390029   -0.9135484976    0.1424298470
C       -7.9012783597    0.6378973707   -1.1843464885
C       -0.7784054466   -5.7055019709   -3.0506875189
C        0.7894827559   -0.0250749927    0.3887146298
C       -6.2804994148   -1.8518735650   -1.8024154655
C       -2.7636507987   -4.8351268505   -0.0117763031
C       -2.3271330520   -5.6506127548   -1.2300167739
N       -4.9364350372   -2.0162333402   -1.2533925554
N       -3.1945133281   -3.4853846481   -0.3860274232
O       -4.4116079244    0.1539145901   -1.5884984176
O       -5.2400946572   -4.2288852361   -0.9703643893
O        1.7851284000   -0.4577042130   -0.5363516769
O       -1.1885198559   -5.0434079133   -1.8512842018
S       -0.6691182350   -2.4378869823    0.3157694695
H       -7.4838740150   -2.6305721656   -0.1428566046
H       -2.6065927492    1.7607067790   -0.1889563641
H       -0.9166019412    1.8895889203   -0.7139118980
H       -2.1581144624    1.4123348565   -1.8719764895
H       -9.4775143013   -0.4783569471    1.1461396759
H      -10.2813302460   -0.4386288482   -0.4402922680
H       -9.7142449565   -1.9806788766    0.2252538375
H       -8.1141586428    0.5762815376   -2.2556116891
H       -8.5467111025    1.4054829997   -0.7467586482
H       -6.8636598700    0.9523699175   -1.0414150001
H        0.1277959793   -5.2318710137   -3.4402630447
H       -1.5622052999   -5.6368893473   -3.8116820454
H       -0.5616625428   -6.7601816932   -2.8529122817
H        0.6953501999    1.0623199519    0.3471595659
H        1.0868375763   -0.2947446980    1.4070083167
H       -6.3285293772   -0.9986678168   -2.4867082508
H       -6.5426125960   -2.7240838914   -2.4116729163
H       -3.5858096994   -5.3563421298    0.4897180182
H       -1.9433581560   -4.7979314492    0.7099649227
H       -3.1560853936   -5.7203674938   -1.9424425603
H       -2.0696230765   -6.6640986562   -0.9063282432
H        1.4288646371   -0.4550411044   -1.4427775718
45   

C       -2.7636254791   -1.1331973263   -0.6899130582
C       -1.7149980186   -0.1237227966   -0.4845481706
C       -0.5802587695   -0.6805266969    0.0778086552
C       -4.0913531366   -0.9407342184   -1.2651143660
C       -2.3869858500   -2.3747513861   -0.2803295635
C       -4.5258793150   -3.2573895336   -0.9316289377
C       -7.3275325407   -1.7459217937   -0.8162425047
C       -8.1083718024   -0.6834408693   -0.5526333103
C       -1.8847255851    1.3302294043   -0.8579857873
C       -9.3150390816   -0.8215869331    0.3455696523
C       -7.8787347345    0.6452356467   -1.2304467392
C       -0.7604458056   -5.7107355670   -2.9649037153
C        0.7035461897    0.0031669596    0.4613330727
C       -6.3021051296   -1.8484510757   -1.9141510673
C       -2.8360368657   -4.8120837383    0.0038648490
C       -2.3611270462   -5.6414338358   -1.1902812007
N       -4.9681132247   -2.0080449116   -1.3382525502
N       -3.2541848509   -3.4670605456   -0.4003192869
O       -4.4203256439    0.1515107400   -1.7069594875
O       -5.2806123850   -4.2175640436   -1.0396941248
O        1.7293377314   -0.4421613387   -0.4238781126
O       -1.2032912759   -5.0407897567   -1.7816674766
S       -0.7526983138   -2.4104305492    0.3712118469
H       -7.5412784577   -2.6719992569   -0.2933334461
H       -2.6865597780    1.7740246505   -0.2601216696
H       -0.9736985107    1.9094438420   -0.6998894758
H       -2.1525622985    1.4140805606   -1.9154343919
H       -9.0883482277   -0.4188363414    1.3372457781
H      -10.1642421105   -0.2719605433   -0.0718872116
H       -9.6075225773   -1.8708290169    0.4516567690
H       -8.1735109549    0.5906081413   -2.2824218529
H       -8.4690349005    1.4289885909   -0.7462352902
H       -6.8270086895    0.9355395191   -1.1654069618
H        0.1561619176   -5.2395795682   -3.3325046226
H       -1.5229857821   -5.6472527024   -3.7476381553
H       -0.5493765785   -6.7640274172   -2.7540878061
H        0.6119311926    1.0899049579    0.4018083776
H        0.9663478634   -0.2527658639    1.4925914784
H       -6.3482510345   -0.9826336164   -2.5824632657
H       -6.5396142722   -2.7122492408   -2.5451046393
H       -3.6739254684   -5.3274046096    0.4850044731
H       -2.0391330030   -4.7661840116    0.7508700455
H       -3.1670986668   -5.7196101263   -1.9277726252
H       -2.1139321400   -6.6510032759   -0.8469642503
H        1.4038565470   -0.4508702355   -1.3417839295
45   

C       -2.7799852201   -1.1833935499   -0.7853752022
C       -1.7499426586   -0.1633773820   -0.5418516136
C       -0.6257487630   -0.7113094815    0.0495899461
C       -4.0907593278   -1.0022099475   -1.4011769002
C       -2.4022018139   -2.4231412020   -0.3719492231
C       -4.5149155829   -3.3225007996   -1.0837011423
C       -7.3203996105   -1.8454659142   -0.9846058824
C       -8.0217109775   -0.7610218053   -0.6115480515
C       -1.9285026090    1.2920397641   -0.9054799747
C       -9.0249901880   -0.8520178598    0.5144042567
C       -7.8546157747    0.5666796226   -1.3098149400
C       -0.6659256528   -5.7201102349   -3.0297975324
C        0.6382649076   -0.0159992404    0.4755850363
C       -6.2898281333   -1.9207724633   -2.0803237316
C       -2.8337843951   -4.8663626531   -0.1147691031
C       -2.3162885323   -5.6823559426   -1.3002081483
N       -4.9589120797   -2.0750817508   -1.4944758483
N       -3.2544702327   -3.5233425013   -0.5227524410
O       -4.4103009854    0.0849272432   -1.8616393055
O       -5.2582182170   -4.2888037750   -1.2139072162
O        1.6928785511   -0.4382023703   -0.3867316192
O       -1.1483061711   -5.0653733948   -1.8535821300
S       -0.7871247467   -2.4450513017    0.3265214166
H       -7.5203852349   -2.7793008017   -0.4700754367
H       -2.7666535868    1.7133352448   -0.3420923130
H       -1.0379705627    1.8861662285   -0.6948881884
H       -2.1465876411    1.3845014411   -1.9735917588
H       -8.5723297652   -0.4967198707    1.4449763315
H       -9.9030003290   -0.2375749156    0.2928527415
H       -9.3598295803   -1.8839432537    0.6584031719
H       -8.2893854166    0.5233631994   -2.3125336265
H       -8.3567342159    1.3607000089   -0.7490237880
H       -6.7993011078    0.8375937491   -1.3867008024
H        0.2550325259   -5.2357285568   -3.3681748812
H       -1.4074858652   -5.6581837832   -3.8325544826
H       -0.4489239107   -6.7727872716   -2.8220012765
H        0.5345194189    1.0701106386    0.4256125720
H        0.8765688707   -0.2804792497    1.5106327679
H       -6.3420502303   -1.0433174614   -2.7329174394
H       -6.5142651047   -2.7766127363   -2.7267161976
H       -3.6793032510   -5.3937514954    0.3391719044
H       -2.0589189957   -4.8168265952    0.6548582515
H       -3.0999877644   -5.7634610945   -2.0610277727
H       -2.0683435313   -6.6916892953   -0.9567689214
H        1.3920567677   -0.4402834945   -1.3130652777
