39   
Generated by ForceBalance from scan.xyz: Frame 1 of 15
C       -1.1868372019    2.1520361264   -1.3843916763
C       -1.0035143873    2.7935892705   -0.1543240208
C       -0.7568285432    0.8265105494   -1.5620800258
C        2.3932113541   -0.3870081114   -1.8087459200
C        2.3988811470   -2.6735516171   -1.0540891509
C       -1.5878159036   -2.7820476185    0.0136323033
C       -0.6818362829   -2.6512088328   -2.2098576567
C       -0.3955187328    2.1345501657    0.9257382697
C        3.6272375181   -0.5912008942   -2.4378501117
C        3.6247940592   -2.8883427622   -1.6736295849
C       -2.5865952628   -3.6458387829   -0.4421745967
C       -1.6748258424   -3.5082224781   -2.6796805293
C        1.7600229849   -1.4224769154   -1.1179364779
C       -0.6208956986   -2.2730143496   -0.8599962191
C       -0.1428611791    0.1683594723   -0.5062926824
C        0.0197557279    0.8216663309    0.7247087376
C        4.2445352629   -1.8431445893   -2.3733196859
C       -2.6338606010   -4.0097674268   -1.7924077388
C        0.7248207062   -1.3424835514    1.1224523104
C        0.4116829999   -1.2451412200   -0.4049775388
N        0.6413229416   -0.0555677708    1.6310789492
O        0.9719091481   -2.3426004742    1.7727618152
O        5.4528748578   -2.1099201143   -2.9717042161
O       -3.5901823326   -4.8566446866   -2.3009013584
H       -1.6702741000    2.6785287755   -2.2024287366
H       -1.3421394964    3.8182820729   -0.0266659910
H       -0.9102830310    0.3184035096   -2.5102966920
H        1.9311791947    0.5927897164   -1.8666510973
H        1.9261533150   -3.4831557657   -0.5068490909
H       -1.5652246284   -2.5214171879    1.0668018557
H        0.0668139251   -2.2814968082   -2.9044780886
H       -0.2621052205    2.6334701001    1.8821127126
H        4.1025105115    0.2279211801   -2.9757517111
H        4.1172547745   -3.8550682565   -1.6252637279
H       -3.3237279016   -4.0387490117    0.2566722555
H       -1.7160584411   -3.8028448632   -3.7241862000
H        0.7182711618    0.1058554293    2.6282070168
H        5.7725721840   -1.3055138703   -3.4101190367
H       -4.1779594252   -5.1368212963   -1.5816040853
39   
Generated by ForceBalance from scan.xyz: Frame 2 of 15
C       -0.8138581179    2.1204633787   -1.3248632167
C       -0.5013671770    2.7552850580   -0.1177400674
C       -0.4440770779    0.7817849221   -1.5398222432
C        2.7080544073   -0.5229886825   -1.9427363833
C        2.7200992432   -2.7838231291   -1.1141060778
C       -1.3451609383   -2.7498024085   -0.1028013584
C       -0.3566235989   -2.7235891866   -2.2937356932
C        0.1838856737    2.0764658778    0.9031191333
C        3.9300823983   -0.7521303034   -2.5859485397
C        3.9350059405   -3.0240726727   -1.7465638230
C       -2.3722995755   -3.5697489935   -0.5739356797
C       -1.3786457824   -3.5374931630   -2.7799253171
C        2.0851015119   -1.5329331577   -1.2069302166
C       -0.3191959574   -2.3172855091   -0.9515528520
C        0.2394918786    0.1042401430   -0.5410744230
C        0.5352112000    0.7512432440    0.6694975157
C        4.5451000412   -2.0035472451   -2.4897002500
C       -2.3923523675   -3.9656218251   -1.9164017788
C        1.0786291363   -1.4485642778    1.0392482973
C        0.7451916817   -1.3320096992   -0.4822922882
N        1.2329962109   -0.1437730569    1.5073656535
O        1.0809268493   -2.4520185348    1.7269868775
O        5.7428651927   -2.2930915314   -3.0981824246
O       -3.3757056985   -4.7727122083   -2.4380702969
H       -1.3540959226    2.6625093018   -2.0958522613
H       -0.7960898041    3.7895908791    0.0385458665
H       -0.7014706652    0.2774422781   -2.4674574378
H        2.2458338609    0.4552067762   -2.0246005044
H        2.2511049136   -3.5758719313   -0.5374376435
H       -1.3470203551   -2.4607986872    0.9426886504
H        0.4311711230   -2.4086453305   -2.9714901958
H        0.4234186958    2.5717633205    1.8404777965
H        4.3984227709    0.0467198626   -3.1592705857
H        4.4252049110   -3.9905584922   -1.6756212907
H       -3.1547165255   -3.9030836185    0.1064715343
H       -1.4006412467   -3.8530193096   -3.8188898908
H        1.2878228482   -0.0048626498    2.5107601452
H        6.0569130463   -1.5048713777   -3.5689212972
H       -4.0008950759   -5.0035304261   -1.7329265771
39   
Generated by ForceBalance from scan.xyz: Frame 3 of 15
C       -1.1613820843    2.1247540834   -1.1961509658
C       -0.7988480070    2.7754760604   -0.0117125285
C       -0.7685841574    0.7947385718   -1.4253217339
C        2.4224809224   -0.4587001329   -1.9485877421
C        2.5985516520   -2.6355296200   -0.9371186762
C       -1.6384777326   -2.5934248635   -0.1240712469
C       -0.4295042948   -2.8498075957   -2.1849079402
C       -0.0364232847    2.1234359881    0.9719362843
C        3.6542217191   -0.6542622241   -2.5837036915
C        3.8252698869   -2.8427078554   -1.5594159424
C       -2.6395684470   -3.4387090729   -0.6019555542
C       -1.4257246863   -3.6927667072   -2.6790244715
C        1.8768478936   -1.4438804740   -1.1239742182
C       -0.5130551888   -2.2899745465   -0.9024455703
C       -0.0115971627    0.1445408240   -0.4623309804
C        0.3370943005    0.8068607045    0.7268974560
C        4.3576252351   -1.8468135163   -2.3901113400
C       -2.5353185618   -3.9931974132   -1.8841103029
C        0.8291231439   -1.3782484234    1.1130947412
C        0.5237254291   -1.2836032913   -0.4176130156
N        1.1234527724   -0.0622237803    1.5229442857
O        0.6203510591   -2.3086699519    1.8643731649
O        5.5705312941   -2.1001414473   -2.9841538829
O       -3.4893209053   -4.8328852849   -2.4088171648
H       -1.7603802905    2.6467456535   -1.9369883516
H       -1.1133573030    3.8021842968    0.1559812391
H       -1.0669413362    0.2740863858   -2.3316051287
H        1.8913747548    0.4746587565   -2.1041290235
H        2.1862438951   -3.4135980368   -0.3000585464
H       -1.7407534913   -2.1743809163    0.8713643010
H        0.4277710390   -2.6306597839   -2.8132522760
H        0.2438044489    2.6325961167    1.8903775842
H        4.0621531557    0.1248456604   -3.2261843030
H        4.3823235079   -3.7637016246   -1.4149664544
H       -3.5004647274   -3.6677288245    0.0246785716
H       -1.3535841555   -4.1257010321   -3.6724242014
H        1.1341783488    0.0696621303    2.5306134904
H        5.8255591850   -1.3338276338   -3.5219868534
H       -4.1889462827   -4.9657058331   -1.7498645063
39   
Generated by ForceBalance from scan.xyz: Frame 4 of 15
C       -1.0614941681    2.1310927930   -1.1001629942
C       -0.6287374932    2.7575275355    0.0735646625
C       -0.7010025764    0.7990435537   -1.3693386544
C        2.4603027531   -0.5212606708   -2.0502525871
C        2.7320604320   -2.6177646401   -0.9028603181
C       -1.6547302559   -2.4532925760   -0.2843295485
C       -0.2704802456   -2.9988650617   -2.1707602502
C        0.1748416736    2.0811817180    1.0075512670
C        3.6931800950   -0.7084020055   -2.6849020034
C        3.9617408304   -2.8165694591   -1.5232734444
C       -2.6572902249   -3.2906210009   -0.7698001109
C       -1.2673746816   -3.8376857816   -2.6727889672
C        1.9622615118   -1.4701243776   -1.1562038915
C       -0.4403476872   -2.2976054535   -0.9695059755
C        0.0968663367    0.1255557312   -0.4570734746
C        0.5180760254    0.7648265562    0.7237838156
C        4.4468556747   -1.8563954883   -2.4215117506
C       -2.4644470610   -3.9896322790   -1.9690460954
C        0.8733206843   -1.4235359097    1.0841941839
C        0.6076982994   -1.3179830584   -0.4572790334
N        1.3421784861   -0.1302301475    1.4584684392
O        0.4216816405   -2.2418041357    1.8547296867
O        5.6650930650   -2.0980718043   -3.0095262161
O       -3.4160813321   -4.8292665926   -2.4979563108
H       -1.6907853603    2.6728609565   -1.8005987955
H       -0.9197293643    3.7856211361    0.2724889909
H       -1.0557998372    0.2953295932   -2.2647680892
H        1.8911216071    0.3790335463   -2.2578871265
H        2.3556269757   -3.3739881223   -0.2180662268
H       -1.8263372663   -1.9162378080    0.6426649874
H        0.6515475884   -2.8938264383   -2.7323557022
H        0.5089398110    2.5725265313    1.9175997138
H        4.0643134520    0.0430692398   -3.3804081982
H        4.5562817576   -3.7036572281   -1.3259585073
H       -3.5883554707   -3.4003756498   -0.2153681862
H       -1.1284062608   -4.3790190198   -3.6039667478
H        1.3516947820   -0.0051213909    2.4686589236
H        5.8844891083   -1.3587347623   -3.5983990385
H       -4.1814784998   -4.8528774067   -1.9021859044
39   
Generated by ForceBalance from scan.xyz: Frame 5 of 15
C       -1.0231753714    2.1283206464   -1.0050063384
C       -0.5393221169    2.7195732306    0.1667960083
C       -0.6941193648    0.7977181188   -1.3197941191
C        2.4153083198   -0.6032837408   -2.1594371007
C        2.7945775245   -2.5977096996   -0.8727755367
C       -1.7220751466   -2.3471137772   -0.4828532423
C       -0.1967213063   -3.1447120374   -2.1583340471
C        0.2875596502    2.0100052471    1.0553259063
C        3.6479335512   -0.7795259343   -2.7968164512
C        4.0256389955   -2.7855314024   -1.4950397664
C       -2.7197102134   -3.1794338011   -0.9855040545
C       -1.1870202389   -3.9822972402   -2.6758156956
C        1.9711574481   -1.5064347412   -1.1924066417
C       -0.4397252903   -2.3176977221   -1.0535897454
C        0.1291553255    0.0925930895   -0.4556298638
C        0.6038399800    0.6982823314    0.7259338035
C        4.4571038011   -1.8708257006   -2.4646926944
C       -2.4529628459   -4.0051771497   -2.0862340618
C        0.8214951950   -1.4833391021    1.0514554793
C        0.6140444863   -1.3670287598   -0.5042594415
N        1.4496856198   -0.2299880026    1.3993564049
O        0.1454151302   -2.1438335707    1.8058813261
O        5.6792538415   -2.0976666663   -3.0509707291
O       -3.3966394115   -4.8465351886   -2.6264532290
H       -1.6690667932    2.6961069189   -1.6687851335
H       -0.8075864391    3.7465662225    0.4004779574
H       -1.0914066335    0.3213671124   -2.2122543999
H        1.8038360729    0.2544813675   -2.4205524638
H        2.4614481197   -3.3223233864   -0.1325819265
H       -1.9500400155   -1.7107869756    0.3658268336
H        0.7777753533   -3.1396942647   -2.6340461569
H        0.6604838110    2.4738470649    1.9646696852
H        3.9770679077   -0.0626968275   -3.5477992078
H        4.6620706641   -3.6289297732   -1.2442360415
H       -3.7047682617   -3.1870249139   -0.5207908463
H       -0.9902311080   -4.6198806678   -3.5326752763
H        1.4691824743   -0.1100269846    2.4116852671
H        5.8582736374   -1.3920002043   -3.6924484443
H       -4.2157778003   -4.7729414161   -2.1117382236
39   
Generated by ForceBalance from scan.xyz: Frame 6 of 15
C       -1.0513352979    2.1099288246   -0.9451906839
C       -0.5344936519    2.6974265805    0.2138963968
C       -0.7244235429    0.7826118776   -1.2787848119
C        2.3969863758   -0.6414934583   -2.1891811926
C        2.8104410021   -2.5975472370   -0.8578216456
C       -1.7477157037   -2.3122759756   -0.5522713797
C       -0.1774424304   -3.1960317181   -2.1411424305
C        0.3277962479    1.9910269596    1.0718650107
C        3.6287617701   -0.8147098547   -2.8288666065
C        4.0411177932   -2.7841185739   -1.4814618572
C       -2.7432355919   -3.1403277689   -1.0666861935
C       -1.1651415535   -4.0297313488   -2.6687744929
C        1.9699581425   -1.5267773317   -1.1984060589
C       -0.4431119861   -2.3277935302   -1.0725891629
C        0.1350392393    0.0809343942   -0.4487992683
C        0.6473157811    0.6864604273    0.7220314724
C        4.4544120788   -1.8866082141   -2.4747655786
C       -2.4530958016   -4.0074287396   -2.1286338557
C        0.7924085473   -1.4749852176    1.0572327269
C        0.6150526215   -1.3888716940   -0.5134445307
N        1.5382720986   -0.2423824550    1.3360515266
O       -0.0442712600   -1.9496381003    1.7883091677
O        5.6771604543   -2.1101374156   -3.0617053279
O       -3.3936341730   -4.8457918008   -2.6785750838
H       -1.7214873209    2.6773055247   -1.5848781299
H       -0.8036473248    3.7207734476    0.4621623846
H       -1.1495947618    0.3090108242   -2.1596935187
H        1.7711339238    0.2005879921   -2.4673905181
H        2.4918316956   -3.3079945168   -0.0972185146
H       -1.9952067488   -1.6436421033    0.2647650864
H        0.8131681557   -3.2257432022   -2.5809383236
H        0.7265680010    2.4530288395    1.9710830829
H        3.9443940856   -0.1111826860   -3.5980441512
H        4.6908532626   -3.6120225257   -1.2136089701
H       -3.7455163142   -3.1110212323   -0.6412557255
H       -0.9498609461   -4.6980669770   -3.4972868449
H        1.6089265469   -0.1021526879    2.3450781391
H        5.8427003975   -1.4174680593   -3.7207051890
H       -4.2304627743   -4.7376277891   -2.1996320362
39   
Generated by ForceBalance from scan.xyz: Frame 7 of 15
C       -1.0282919626    2.1185790905   -0.8292254021
C       -0.4878917323    2.6785926207    0.3316900751
C       -0.7114763545    0.7981698190   -1.2029622517
C        2.3460085858   -0.7280015838   -2.2689266054
C        2.8757848311   -2.5428035588   -0.7885881539
C       -1.7663720241   -2.2362989910   -0.6589558548
C       -0.1318112014   -3.2751876066   -2.0806045975
C        0.3933012113    1.9518933680    1.1546110476
C        3.5692802380   -0.9020385803   -2.9235441931
C        4.0992912527   -2.7303141214   -1.4266412367
C       -2.7562580293   -3.0665945318   -1.1812716675
C       -1.1122511749   -4.1129924337   -2.6138155456
C        1.9817628854   -1.5423315000   -1.1949602329
C       -0.4333140993   -2.3244637845   -1.0936609540
C        0.1690872812    0.0775166728   -0.4142240867
C        0.7064338110    0.6592742500    0.7641021128
C        4.4497689052   -1.9041269838   -2.5021161553
C       -2.4304864655   -4.0125850244   -2.1620222256
C        0.7725530801   -1.4949758895    1.0788750343
C        0.6296199647   -1.4072042904   -0.5126264178
N        1.6212528996   -0.2905934167    1.3045754807
O       -0.1971491830   -1.7963838425    1.7335827884
O        5.6681248894   -2.1243193010   -3.1001596151
O       -3.3633129500   -4.8570381667   -2.7155141679
H       -1.7099093197    2.7020337595   -1.4418406131
H       -0.7512619981    3.6959000436    0.6093073997
H       -1.1594298392    0.3488478191   -2.0852481098
H        1.6752984345    0.0584155368   -2.6011977433
H        2.6081413182   -3.1965378865    0.0399944727
H       -2.0403421920   -1.5108634870    0.0987302145
H        0.8827095490   -3.3659760438   -2.4521085425
H        0.8113999637    2.3917779141    2.0560923569
H        3.8359680413   -0.2541064085   -3.7573658202
H        4.7914725596   -3.5034930486   -1.1066269759
H       -3.7812786409   -2.9785178092   -0.8234180549
H       -0.8687442663   -4.8440507026   -3.3791703156
H        1.7633311666   -0.1440759049    2.3068656012
H        5.7878637906   -1.4828140738   -3.8181717077
H       -4.2251839956   -4.6878212265   -2.3032756644
39   
Generated by ForceBalance from scan.xyz: Frame 8 of 15
C       -0.8415013718    2.2203150198   -1.5848992705
C       -1.4693014650    2.4886987455   -0.3654283368
C       -0.2275008336    0.9738269279   -1.8148145747
C        2.6584609602   -0.4763837730   -1.3463561427
C        1.9766842732   -2.5415004605   -2.3695440027
C       -0.5094673105   -3.7564691668   -0.4932960583
C       -1.5716713642   -2.3361017732   -2.1108084967
C       -1.5191383706    1.5276001966    0.6621116177
C        3.8698842230   -0.5310376445   -2.0329386247
C        3.1850093899   -2.6079346269   -3.0646125576
C       -1.3530731822   -4.8103968287   -0.8482971475
C       -2.4227871201   -3.3777212438   -2.4808540933
C        1.6888637176   -1.4824275259   -1.4952088914
C       -0.6044074323   -2.5066827888   -1.1142587560
C       -0.2848387438    0.0115668779   -0.8211649251
C       -0.9228157045    0.3013963693    0.4132154012
C        4.1395403495   -1.6020302011   -2.8950504035
C       -2.3157149012   -4.6207246628   -1.8479461509
C        0.5224077255   -1.2713644116    0.8436139046
C        0.3703563611   -1.3995048708   -0.7446284204
N       -0.8808104068   -0.8980844904    1.1820588130
O        1.5117102019   -0.7430072761    1.2931958998
O        5.3150926349   -1.7085689779   -3.5995743565
O       -3.1786835128   -5.6147171873   -2.2455169844
H       -0.8155113303    2.9837081519   -2.3574633099
H       -1.9304452209    3.4592874753   -0.2022963554
H        0.2919358276    0.7752482421   -2.7484249132
H        2.4696076374    0.3631099806   -0.6870016219
H        1.2474333713   -3.3286612864   -2.5245623884
H        0.2423613409   -3.9189090271    0.2771425576
H       -1.6695279075   -1.3740051012   -2.6043612058
H       -2.0096646424    1.7414032994    1.6079726418
H        4.6052713873    0.2607733455   -1.8962460037
H        3.3968732601   -3.4301561703   -3.7417659309
H       -1.2629324418   -5.7736721895   -0.3483107627
H       -3.1751498540   -3.2424405199   -3.2523039399
H       -0.9594456910   -0.7021851917    2.1828493252
H        5.8832733136   -0.9532581831   -3.3803166135
H       -3.0026380197   -6.4138913419   -1.7243610589
39   
Generated by ForceBalance from scan.xyz: Frame 9 of 15
C       -0.8825138117    2.1945553608   -1.6449784128
C       -1.4923645015    2.4853449592   -0.4205164404
C       -0.2601236431    0.9504239322   -1.8547127266
C        2.6750306086   -0.5039985731   -1.2889535301
C        1.9573739801   -2.5103440216   -2.3984053957
C       -0.5017380031   -3.7553322194   -0.5107365680
C       -1.6070810474   -2.3170813685   -2.0845658049
C       -1.5102923727    1.5488055043    0.6286347112
C        3.8902227705   -0.5554472143   -1.9686411797
C        3.1691035887   -2.5737195873   -3.0887933482
C       -1.3488447034   -4.8079691604   -0.8612703450
C       -2.4608691154   -3.3580731558   -2.4499828332
C        1.6863094172   -1.4819903040   -1.4846756814
C       -0.6165783075   -2.4973624101   -1.1128274169
C       -0.2838162363    0.0138080906   -0.8336362352
C       -0.9001055391    0.3232540359    0.4004624154
C        4.1431542368   -1.5961727567   -2.8723739837
C       -2.3341102949   -4.6091255950   -1.8367110035
C        0.5144226033   -1.2950088549    0.8309509213
C        0.3621156041   -1.3892929242   -0.7420200382
N       -0.8201028139   -0.8349394077    1.2300455359
O        1.5431795749   -0.9618926689    1.3703923252
O        5.3214717895   -1.6989425233   -3.5731132681
O       -3.2008668825   -5.6013104880   -2.2291469098
H       -0.8772307414    2.9399337732   -2.4352700404
H       -1.9619697341    3.4541480342   -0.2715695141
H        0.2448258187    0.7320285837   -2.7919285597
H        2.4971192851    0.3121851189   -0.5971892623
H        1.2133064344   -3.2759276448   -2.5879227456
H        0.2697379320   -3.9264808355    0.2377129443
H       -1.7219016453   -1.3489054688   -2.5619344133
H       -1.9859422301    1.7795267187    1.5781470619
H        4.6412928308    0.2140005229   -1.7947406580
H        3.3689746624   -3.3723920080   -3.7970581169
H       -1.2428311242   -5.7776773450   -0.3771583123
H       -3.2307845974   -3.2160243639   -3.2026586652
H       -0.8176022092   -0.5972129800    2.2233156227
H        5.9047077127   -0.9668393044   -3.3177293786
H       -3.0108223294   -6.4067388427   -1.7226865259
39   
Generated by ForceBalance from scan.xyz: Frame 10 of 15
C       -0.9089163202    2.1023825859   -1.7766984528
C       -1.4955875652    2.3972008407   -0.5416338372
C       -0.2599949261    0.8714145041   -1.9809392532
C        2.7769403143   -0.5596822337   -1.3044929556
C        1.9980131121   -2.4029553230   -2.6337582158
C       -0.2875489767   -3.8466621052   -0.7147866477
C       -1.5925849420   -2.3790736761   -2.1006492402
C       -1.4594544971    1.4789755985    0.5227470549
C        3.9823130837   -0.5559628126   -2.0029448512
C        3.1993255804   -2.4092494866   -3.3458413088
C       -1.1119836283   -4.9193177434   -1.0574356027
C       -2.4240789629   -3.4419002008   -2.4558215711
C        1.7646807003   -1.4866557506   -1.5991929128
C       -0.5140052467   -2.5636634092   -1.2287927305
C       -0.2272670697   -0.0456744628   -0.9417899332
C       -0.8158360704    0.2690586751    0.3000571811
C        4.1987129110   -1.4868238913   -3.0282633101
C       -2.1864421619   -4.7175206242   -1.9332122133
C        0.5893974220   -1.3994506514    0.7151136579
C        0.4396561534   -1.4305850289   -0.8521877097
N       -0.6684088451   -0.8568803138    1.1603621644
O        1.6445361161   -1.3095106648    1.2998831836
O        5.3664148451   -1.5316916132   -3.7527687802
O       -3.0357403112   -5.7296566754   -2.3120598915
H       -0.9431343815    2.8343890236   -2.5786739329
H       -1.9883296333    3.3549656168   -0.3963171656
H        0.2235324771    0.6470376563   -2.9280582740
H        2.6252772019    0.1742832173   -0.5201023712
H        1.2340539458   -3.1247755003   -2.9004354833
H        0.5549649753   -4.0194454232   -0.0484860755
H       -1.7947824312   -1.3928331078   -2.5063210381
H       -1.9160966871    1.7135544126    1.4806351928
H        4.7536184015    0.1703513316   -1.7500357109
H        3.3717087241   -3.1216589230   -4.1472358742
H       -0.9181469028   -5.9082858805   -0.6447666985
H       -3.2617811402   -3.2979563149   -3.1318261541
H       -0.6390383098   -0.6203352684    2.1516474776
H        5.9683975302   -0.8462387866   -3.4224565868
H       -2.7645849998   -6.5517204447   -1.8737895627
39   
Generated by ForceBalance from scan.xyz: Frame 11 of 15
C       -0.9613171307    2.1313079511   -1.8477387876
C       -1.5327826704    2.5140659033   -0.6296285532
C       -0.3505916055    0.8719058819   -1.9826816743
C        2.7128443217   -0.6962264629   -1.0161035029
C        1.8036961003   -2.2989759902   -2.5586340264
C       -0.4013568304   -3.8055307646   -0.6569061194
C       -1.8260093406   -2.2994230495   -1.8769775208
C       -1.5166153870    1.6573992871    0.4847869926
C        3.9301557105   -0.7279132642   -1.6939496218
C        3.0155830755   -2.3367894969   -3.2509114054
C       -1.2375422171   -4.8736782433   -0.9812897207
C       -2.6714845724   -3.3581610044   -2.2131641557
C        1.6303930829   -1.4874523737   -1.4292096185
C       -0.6812344181   -2.5054198338   -1.1000411723
C       -0.3348471398    0.0171170344   -0.8912763478
C       -0.9058599579    0.4192021341    0.3305662143
C        4.0868004212   -1.5528038493   -2.8159207199
C       -2.3779221870   -4.6496489219   -1.7643733066
C        0.3771582594   -1.3584131602    0.8393472245
C        0.2839229818   -1.3752091959   -0.7267798253
N       -0.7798259988   -0.6470220561    1.2594053236
O        1.3765554380   -1.5372904329    1.5009838476
O        5.2631509807   -1.6252453760   -3.5241631996
O       -3.2405705195   -5.6583079522   -2.1207427153
H       -0.9785147958    2.8164443828   -2.6905809457
H       -1.9966454806    3.4926142860   -0.5376621997
H        0.1188006175    0.5772268484   -2.9176846849
H        2.6112453540   -0.0449276300   -0.1544942412
H        0.9832417382   -2.9136301943   -2.9133009086
H        0.4896570033   -3.9901539787   -0.0617419699
H       -2.0688860628   -1.3006132997   -2.2251903169
H       -1.9626620458    1.9587764473    1.4289438287
H        4.7583830583   -0.1102171443   -1.3492853438
H        3.1424967120   -2.9681132316   -4.1254312471
H       -1.0021923233   -5.8764167619   -0.6274254518
H       -3.5594359900   -3.1983554719   -2.8177800044
H       -0.7526278304   -0.3899393180    2.2436977745
H        5.9180987906   -1.0433845352   -3.1072622711
H       -2.9250807008   -6.4937481359   -1.7413702365
39   
Generated by ForceBalance from scan.xyz: Frame 12 of 15
C       -1.0204704197    2.2618941659   -1.8605426802
C       -1.5834972954    2.8066239214   -0.7012899142
C       -0.4870712063    0.9614117052   -1.8483899610
C        2.5060776220   -0.8124097075   -0.4054552481
C        1.5084866620   -2.1369655517   -2.1445069431
C       -0.7594216746   -3.5860445336   -0.2605994050
C       -2.1661084087   -2.0553378404   -1.4727991662
C       -1.6331869363    2.0734608933    0.4962908244
C        3.7539203117   -0.9476675127   -1.0144738970
C        2.7485540800   -2.2756697598   -2.7684629941
C       -1.6259362113   -4.6350738845   -0.5648028149
C       -3.0414240479   -3.0967075713   -1.7874279663
C        1.3635560622   -1.4104591628   -0.9538188143
C       -1.0137868030   -2.2833453028   -0.7129359199
C       -0.5339866474    0.2285180335   -0.6720168903
C       -1.0940512644    0.7923406274    0.4868482164
C        3.8794509494   -1.6822367282   -2.2002321917
C       -2.7722561560   -4.3915126030   -1.3338800859
C       -0.0281001030   -1.0845949455    1.2082338230
C       -0.0168161761   -1.1728153396   -0.3531283477
N       -1.0445123648   -0.1662471089    1.5276090391
O        0.8138195303   -1.5041595552    1.9765208422
O        5.0821917722   -1.8507428990   -2.8450593222
O       -3.6623457344   -5.3828943905   -1.6709061490
H       -0.9856341157    2.8519308813   -2.7719859476
H       -1.9887372796    3.8148156566   -0.7225378260
H       -0.0283128640    0.5400413531   -2.7390766575
H        2.4331236615   -0.2376813207    0.5114250326
H        0.6411355600   -2.6080551735   -2.5959603410
H        0.1316570468   -3.7831973202    0.3293501020
H       -2.3900529717   -1.0545349349   -1.8276509958
H       -2.0734714715    2.4989159151    1.3942818303
H        4.6296287167   -0.4820408286   -0.5643427061
H        2.8540610093   -2.8413307781   -3.6895538514
H       -1.4098140961   -5.6401526355   -0.2053250417
H       -3.9338657175   -2.9201992970   -2.3806298746
H       -1.0473161351    0.1533558597    2.4921694481
H        5.7762591030   -1.3981154425   -2.3403438836
H       -3.3607239039   -6.2223646117   -1.2891307779
39   
Generated by ForceBalance from scan.xyz: Frame 13 of 15
C       -1.1050329466    2.1427671785   -1.8946147256
C       -1.6045717218    2.7086249131   -0.7164961275
C       -0.5751684875    0.8412522617   -1.8895370977
C        2.4941151472   -0.9798756380   -0.3627226866
C        1.4908673116   -2.1094767645   -2.2324139375
C       -0.7210337780   -3.7040932117   -0.3943741970
C       -2.2181138340   -2.1470126438   -1.4572487603
C       -1.5886044091    1.9953251416    0.4932301387
C        3.7484565803   -1.0941231848   -0.9645099096
C        2.7363578361   -2.2258891216   -2.8483949365
C       -1.5797598294   -4.7552924794   -0.7105385682
C       -3.0865983961   -3.1912176891   -1.7821761915
C        1.3468130500   -1.4896112994   -0.9824968263
C       -1.0240442430   -2.3864775133   -0.7678890834
C       -0.5629185162    0.1261070808   -0.7012176551
C       -1.0566794988    0.7104058559    0.4757247148
C        3.8732732365   -1.7179749191   -2.2115390373
C       -2.7679397809   -4.5001678338   -1.4095261232
C       -0.0453924168   -1.2275599650    1.1728373322
C       -0.0401641110   -1.2697153161   -0.3883965713
N       -0.9350290832   -0.2149815641    1.5352565305
O        0.6617807815   -1.8484262943    1.9440087577
O        5.0812520280   -1.8612652555   -2.8525973163
O       -3.6526274888   -5.4943398658   -1.7526615031
H       -1.1183192899    2.7167870238   -2.8167529883
H       -2.0079535168    3.7176444451   -0.7322325127
H       -0.1666708262    0.4045366021   -2.7970653178
H        2.4224794513   -0.4962690382    0.6058881490
H        0.6176577651   -2.5162166215   -2.7333665837
H        0.1973169585   -3.9071237473    0.1488656130
H       -2.4811934651   -1.1357903543   -1.7497155324
H       -1.9754054218    2.4380071820    1.4073908993
H        4.6292349349   -0.6996301611   -0.4597449717
H        2.8430702940   -2.7093365979   -3.8150431127
H       -1.3262609743   -5.7717517639   -0.4126306236
H       -4.0111336348   -3.0053947143   -2.3208699318
H       -0.9338984807    0.0783852374    2.5064914013
H        5.7792910121   -1.4770364717   -2.2990073122
H       -3.3142798219   -6.3441461467   -1.4289400716
39   
Generated by ForceBalance from scan.xyz: Frame 14 of 15
C       -1.1075040656    2.1642653275   -1.9846188114
C       -1.5279593014    2.7959070817   -0.8089368617
C       -0.5935619285    0.8573907156   -1.9436406251
C        2.5372496239   -1.0343316026   -0.2685983599
C        1.5233916043   -1.9620264937   -2.2410016441
C       -0.6593252203   -3.6348701713   -0.4472542778
C       -2.2336652030   -2.0575591932   -1.3574398238
C       -1.4429062644    2.1473829249    0.4332112009
C        3.7995304424   -1.1687756977   -0.8517668764
C        2.7749764062   -2.0979310379   -2.8380100019
C       -1.5242304874   -4.6834358732   -0.7534061968
C       -3.1093821118   -3.0996876104   -1.6707295256
C        1.3812905032   -1.4295699351   -0.9505138870
C       -0.9968500380   -2.3076689025   -0.7515941254
C       -0.5172026611    0.2015704727   -0.7236202470
C       -0.9292564183    0.8543600924    0.4482151786
C        3.9211340311   -1.6998236771   -2.1405718030
C       -2.7547481603   -4.4175516251   -1.3706457639
C       -0.0188272075   -1.1371669024    1.1865348884
C       -0.0113842430   -1.1911255941   -0.3750589243
N       -0.7300091491   -0.0036556023    1.5440840707
O        0.5142894571   -1.9122550155    1.9610943166
O        5.1345343785   -1.8589750410   -2.7672959577
O       -3.6464736153   -5.4101699935   -1.7008816553
H       -1.1727739792    2.6896972731   -2.9331206775
H       -1.9220245173    3.8077201233   -0.8527627664
H       -0.2533805470    0.3682847972   -2.8524463368
H        2.4677604393   -0.6284439852    0.7354117711
H        0.6421550248   -2.2880151311   -2.7858009652
H        0.2881049777   -3.8458128344    0.0386196073
H       -2.5260628063   -1.0400849208   -1.5947022850
H       -1.7630200423    2.6432154449    1.3459036647
H        4.6872372956   -0.8640641614   -0.2992346760
H        2.8809169907   -2.5138437495   -3.8356799098
H       -1.2428739294   -5.7072428015   -0.5106386861
H       -4.0666122975   -2.9046043820   -2.1452134526
H       -0.8024212376    0.2768321529    2.5146674241
H        5.8384941812   -1.5529208398   -2.1738732927
H       -3.2805385810   -6.2664753247   -1.4283854623
39   
Generated by ForceBalance from scan.xyz: Frame 15 of 15
C       -1.2270657560    2.0988047461   -2.0211461111
C       -1.5441053436    2.7827428672   -0.8422042035
C       -0.7248537162    0.7882327110   -1.9677450026
C        2.5024039376   -1.0923300845   -0.2074991919
C        1.5168471347   -1.9009155409   -2.2457323542
C       -0.6331566292   -3.6671225464   -0.5249259571
C       -2.2881290682   -2.0937245570   -1.2854168709
C       -1.3586566081    2.1839894635    0.4134102548
C        3.7751913379   -1.2156740411   -0.7716732122
C        2.7781449964   -2.0258980994   -2.8226411302
C       -1.4895148093   -4.7232962525   -0.8286697080
C       -3.1558628552   -3.1434975815   -1.5951652143
C        1.3558976962   -1.4315260749   -0.9326757749
C       -1.0145757901   -2.3372230305   -0.7569379294
C       -0.5567921758    0.1777134643   -0.7331008181
C       -0.8618606949    0.8840406038    0.4396550474
C        3.9159117738   -1.6807676746   -2.0831737254
C       -2.7567212497   -4.4632309088   -1.3689412478
C       -0.0449570152   -1.1501687072    1.1913121396
C       -0.0481932025   -1.2109539992   -0.3716082934
N       -0.5525072021    0.0834991510    1.5511506157
O        0.2997801569   -2.0253519464    1.9666781235
O        5.1390752358   -1.8264909446   -2.6937641571
O       -3.6424551299   -5.4634788188   -1.6929451857
H       -1.3675255617    2.5848956150   -2.9823780761
H       -1.9323557668    3.7963670435   -0.8948873935
H       -0.4718995589    0.2580492905   -2.8817947842
H        2.4190235551   -0.7384816221    0.8153503494
H        0.6425043768   -2.1885764756   -2.8224626494
H        0.3415644809   -3.8756624336   -0.0965721407
H       -2.6175544033   -1.0754926090   -1.4630762585
H       -1.5911097605    2.7220264317    1.3287081427
H        4.6552971720   -0.9545322349   -0.1857926688
H        2.8992524922   -2.3933124004   -3.8374703431
H       -1.1730909985   -5.7487926789   -0.6428248729
H       -4.1414092280   -2.9526623745   -2.0095961616
H       -0.7079910096    0.3323503398    2.5201925665
H        5.8354961819   -1.5602786808   -2.0728556418
H       -3.2447041115   -6.3204272429   -1.4719508267
