34   
Generated by ForceBalance from scan.xyz: Frame 1 of 15
C        3.7593177901   -3.0080970043    0.1667155787
C        4.7910615796   -3.3644839499    1.0033925761
C        1.6116263973   -1.0828303042    3.0659164550
C        2.7801190700   -2.3242892725    0.9767471065
C        3.3145540150   -2.2798158616    2.2901130692
C        1.5290978733   -1.6584364581    0.8173402666
C       -0.3913821879   -0.8056197527   -0.4574747283
C        0.8562079997   -2.6799205692   -1.3394996440
C       -1.6069652476   -1.7079810093   -0.2475808359
C       -0.3690530088   -3.5754144154   -1.1268503428
C        5.2387480257   -3.3472668905    3.4898980099
C       -2.7791534014   -3.6512514963   -1.0779180388
N        2.7575454217   -1.6938866868    3.3639433903
N        0.9816194244   -1.0354884629    1.8805253404
N        4.5354245636   -2.9169788104    2.2918045782
N        0.8580493663   -1.5700359480   -0.3843928075
N       -1.6049201108   -2.8004958771   -1.2265789820
H        3.7510168021   -3.1841924305   -0.8992480077
H        5.7094825273   -3.8924262265    0.7818925038
H        1.1133688814   -0.5641661356    3.8835599664
H       -0.4427899660   -0.3587508481   -1.4572204599
H       -0.3697702077   -0.0156006142    0.2899151123
H        1.7576881977   -3.2758103262   -1.2328233129
H        0.8333516333   -2.2656212548   -2.3539785206
H       -1.5975945971   -2.0874427656    0.7907035496
H       -2.5228878713   -1.1214143879   -0.3818999552
H       -0.3801485751   -4.3572235262   -1.8953393171
H       -0.2774428338   -4.0757139937   -0.1422249020
H        6.3185271218   -3.2805742528    3.3318187427
H        4.9531661639   -2.6892927120    4.3113738900
H        4.9745445337   -4.3780237119    3.7512860739
H       -3.6863905901   -3.0512624326   -1.2030871428
H       -2.8299757456   -4.1494323610   -0.0910625985
H       -2.7752434289   -4.4262643128   -1.8516125802
34   
Generated by ForceBalance from scan.xyz: Frame 2 of 15
C        3.7789990575   -2.9508969500    0.1662396739
C        4.8172787386   -3.2868170914    0.9986534944
C        1.6284275978   -1.0151360403    3.0564087001
C        2.7968517790   -2.2661112727    0.9764151062
C        3.3488632323   -2.1847971199    2.2780821666
C        1.5374951397   -1.6170516999    0.8157898944
C       -0.4026158272   -0.8041553983   -0.4553952903
C        0.8602313113   -2.6759547316   -1.3218045631
C       -1.6066496041   -1.7172100626   -0.2262533994
C       -0.3538752493   -3.5818235532   -1.0896569892
C        5.1248493070   -3.4696586301    3.4713943624
C       -2.7628168766   -3.6829801237   -1.0258086990
N        2.7878746564   -1.6032083872    3.3509378760
N        0.9894984413   -0.9887419828    1.8757804801
N        4.5812212452   -2.8126324669    2.2874214263
N        0.8560297358   -1.5533026198   -0.3816152633
N       -1.5985784324   -2.8216775888   -1.1916296246
H        3.7665867611   -3.1320402274   -0.8990580755
H        5.7331118732   -3.8198049755    0.7774498777
H        1.1270066511   -0.4986075084    3.8734294760
H       -0.4657542528   -0.3701952056   -1.4601336640
H       -0.3849145020   -0.0046942392    0.2819957562
H        1.7687250837   -3.2607774502   -1.2131002829
H        0.8267245645   -2.2756897997   -2.3416019595
H       -1.5865721366   -2.0836129529    0.8165765795
H       -2.5298067071   -1.1424553862   -0.3619274447
H       -0.3611186294   -4.3736512176   -1.8478511372
H       -0.2507796579   -4.0682684574   -0.0991948531
H        6.2005994400   -3.6163260894    3.3458451030
H        4.9482929676   -2.8337103488    4.3397453973
H        4.6423114330   -4.4398454129    3.6350923146
H       -3.6770579980   -3.0941852702   -1.1529987829
H       -2.8027098901   -4.1695625610   -0.0326969472
H       -2.7550522677   -4.4672695135   -1.7900527318
34   
Generated by ForceBalance from scan.xyz: Frame 3 of 15
C        3.8028546583   -2.8669688799    0.1636313393
C        4.8461155565   -3.1787856863    0.9925766321
C        1.6338541015   -0.9296808553    3.0380986573
C        2.8075192042   -2.1959865041    0.9755147115
C        3.3727690678   -2.0775958612    2.2647444879
C        1.5392582411   -1.5679775500    0.8091603067
C       -0.4180678220   -0.8066146690   -0.4674299553
C        0.8656969530   -2.6800265740   -1.3015440109
C       -1.6090890095   -1.7304024610   -0.2147544625
C       -0.3361599274   -3.5958313129   -1.0455685016
C        4.9775458457   -3.5814518646    3.4119557148
C       -2.7435394982   -3.7256915445   -0.9714808852
N        2.8055355524   -1.4955163856    3.3322520752
N        0.9877093626   -0.9302106938    1.8619900745
N        4.6156342181   -2.7049264050    2.2924953129
N        0.8507969320   -1.5375319070   -0.3853866813
N       -1.5905361168   -2.8535230109   -1.1581389119
H        3.7883386399   -3.0503057494   -0.9016464707
H        5.7639671998   -3.7084889687    0.7703862591
H        1.1299243320   -0.4096440280    3.8513231545
H       -0.4914869026   -0.3932022234   -1.4800726776
H       -0.4073784784    0.0074317353    0.2540128871
H        1.7819590331   -3.2512512587   -1.1837786012
H        0.8238887155   -2.3022513365   -2.3295467360
H       -1.5800539618   -2.0758339134    0.8350098094
H       -2.5400835520   -1.1702995158   -0.3576969974
H       -0.3362197561   -4.4032594328   -1.7871307805
H       -0.2232662111   -4.0603439948   -0.0456299167
H        6.0339544270   -3.8499503847    3.3330702887
H        4.8144164202   -3.0488509518    4.3499962279
H        4.3676412116   -4.4920212491    3.4033862965
H       -3.6653244241   -3.1507430148   -1.1070527940
H       -2.7742244933   -4.1931166155    0.0310873866
H       -2.7285405106   -4.5246184518   -1.7202713833
34   
Generated by ForceBalance from scan.xyz: Frame 4 of 15
C        3.8385564313   -2.7706406103    0.1803354517
C        4.8819759080   -3.0595523872    1.0103663299
C        1.6377237401   -0.8309670294    3.0251635341
C        2.8209335236   -2.1234013852    0.9917784903
C        3.3915311177   -1.9712354329    2.2711931182
C        1.5462247452   -1.5152302238    0.8119418251
C       -0.4223368675   -0.8111260140   -0.4801570432
C        0.8863880171   -2.6883058921   -1.2684752374
C       -1.6007761574   -1.7443075922   -0.2042372761
C       -0.3037327070   -3.6126041495   -0.9891575825
C        4.7942537022   -3.6947402464    3.3270216156
C       -2.7093877058   -3.7716073438   -0.9130169287
N        2.8163962171   -1.3809327478    3.3275402303
N        0.9886127207   -0.8616102407    1.8523203703
N        4.6374285052   -2.6151648040    2.3310082752
N        0.8564003714   -1.5226938262   -0.3818658709
N       -1.5673698167   -2.8895370724   -1.1201125384
H        3.8286846978   -2.9502892696   -0.8861076432
H        5.8055216545   -3.5802741918    0.7891733232
H        1.1319739668   -0.2986296944    3.8291993912
H       -0.5019136157   -0.4230517645   -1.5022686047
H       -0.4219208762    0.0201686659    0.2214838265
H        1.8101259077   -3.2445933918   -1.1358213058
H        0.8405746612   -2.3377792854   -2.3058651021
H       -1.5669953869   -2.0638175156    0.8535975431
H       -2.5391068712   -1.2002084358   -0.3601220303
H       -0.2931926759   -4.4384124598   -1.7100722110
H       -0.1850996428   -4.0503301826    0.0222008749
H        5.8181939778   -4.0738713888    3.2843793476
H        4.6061009146   -3.2948519668    4.3250096012
H        4.0919284215   -4.5116712210    3.1235029831
H       -3.6382364885   -3.2117984887   -1.0627389088
H       -2.7347971502   -4.2151485665    0.1004557443
H       -2.6837304796   -4.5879561496   -1.6424408821
34   
Generated by ForceBalance from scan.xyz: Frame 5 of 15
C        3.8866471692   -2.6701795743    0.2142786319
C        4.9260227388   -2.9420076919    1.0489408355
C        1.6523348462   -0.7198203116    3.0195482200
C        2.8416917509   -2.0531601078    1.0239376932
C        3.4121765774   -1.8730209649    2.2965361455
C        1.5651574546   -1.4590276523    0.8258406431
C       -0.4116470000   -0.8154758172   -0.4859131448
C        0.9263732450   -2.6940496745   -1.2230587643
C       -1.5768824824   -1.7586190942   -0.1886040539
C       -0.2512763805   -3.6275022495   -0.9223361643
C        4.5863883463   -3.8053593271    3.2038791485
C       -2.6546314385   -3.8189639015   -0.8482361387
N        2.8315514813   -1.2651961657    3.3368017909
N        1.0030707465   -0.7817478004    1.8497495649
N        4.6482746916   -2.5560520554    2.3972031373
N        0.8768650589   -1.5060799756   -0.3672562676
N       -1.5245894441   -2.9261641749   -1.0747915447
H        3.8871825375   -2.8377955423   -0.8547202239
H        5.8578515764   -3.4491346272    0.8298952978
H        1.1486634421   -0.1647539989    3.8093615562
H       -0.4945894304   -0.4542245073   -1.5174818614
H       -0.4245433557    0.0330750124    0.1946643054
H        1.8580852510   -3.2331561729   -1.0734584790
H        0.8789209010   -2.3715777516   -2.2693704156
H       -1.5410786576   -2.0506029763    0.8771763896
H       -2.5226409679   -1.2324356220   -0.3600190049
H       -0.2271101528   -4.4716130513   -1.6213277834
H       -0.1291008679   -4.0370009602    0.1004229671
H        5.5648768103   -4.2906351417    3.1802237459
H        4.3422631844   -3.5560381074    4.2388916273
H        3.8269235068   -4.4866843509    2.8009662996
H       -3.5908612878   -3.2764610129   -1.0145355250
H       -2.6766155308   -4.2368733197    0.1761160006
H       -2.6152313851   -4.6530747821   -1.5566019749
34   
Generated by ForceBalance from scan.xyz: Frame 6 of 15
C        3.9387264464   -2.5977384392    0.2322478635
C        4.9692838105   -2.8636599890    1.0743601067
C        1.6909369114   -0.6154362271    2.9948289653
C        2.8663070805   -2.0147130756    1.0419220858
C        3.4381199084   -1.8096754881    2.3088805432
C        1.5950636706   -1.4216126688    0.8263478063
C       -0.3920860780   -0.8316842336   -0.4961173919
C        0.9680997881   -2.7123296389   -1.1889624879
C       -1.5445278174   -1.7820572537   -0.1727826671
C       -0.1969754277   -3.6524678466   -0.8620696880
C        4.3645848440   -3.9260488419    3.0142292132
C       -2.5976026365   -3.8717140324   -0.7783126108
N        2.8641672634   -1.1715952692    3.3299042809
N        1.0381309083   -0.7094731391    1.8318490787
N        4.6451898437   -2.5628091694    2.4535322826
N        0.9046678597   -1.5040945564   -0.3626893061
N       -1.4790703423   -2.9708342227   -1.0292054015
H        3.9532805232   -2.7413724814   -0.8405740897
H        5.9119870662   -3.3523367342    0.8587724867
H        1.1997554655   -0.0243886514    3.7661622659
H       -0.4813168616   -0.4971435878   -1.5360358177
H       -0.4139293668    0.0332979388    0.1632360388
H        1.9078564751   -3.2349045420   -1.0289526454
H        0.9142731790   -2.4163196194   -2.2426696947
H       -1.5032601819   -2.0466297355    0.9000668192
H       -2.4972373603   -1.2724308937   -0.3551346747
H       -0.1637502666   -4.5136215981   -1.5394858560
H       -0.0677444087   -4.0344807124    0.1704741695
H        5.2848580012   -4.5135756126    2.9849216658
H        4.0466576308   -3.8285174303    4.0557495478
H        3.5824901787   -4.4315494416    2.4344923143
H       -3.5407726686   -3.3452849744   -0.9564454902
H       -2.6127450628   -4.2640529141    0.2561891645
H       -2.5487931175   -4.7226728079   -1.4656932293
34   
Generated by ForceBalance from scan.xyz: Frame 7 of 15
C        3.9793594558   -2.5252491173    0.2907296533
C        4.9931894661   -2.7913989540    1.1508567167
C        1.7160961926   -0.4904941560    2.9800021295
C        2.8651573853   -1.9859656462    1.0910187521
C        3.4364711305   -1.7560795632    2.3537475665
C        1.6095816627   -1.3796843452    0.8464769903
C       -0.3804941171   -0.8411943804   -0.4954423208
C        1.0070431354   -2.7206550166   -1.1398314727
C       -1.5216673287   -1.7997625689   -0.1561387804
C       -0.1469425890   -3.6684685716   -0.7971070570
C        4.1698316528   -4.0173928673    2.8330295573
C       -2.5449221771   -3.9161602542   -0.7186028288
N        2.8736421828   -1.0703101669    3.3447898658
N        1.0609536455   -0.6202134995    1.8250400577
N        4.5935603034   -2.5923381668    2.5548644975
N        0.9228341569   -1.4958791258   -0.3404967075
N       -1.4367040136   -3.0067916252   -0.9846729979
H        4.0216374966   -2.6330907437   -0.7860359333
H        5.9520012401   -3.2531343562    0.9473315700
H        1.2446738138    0.1507485623    3.7230216349
H       -0.4689446821   -0.5301658360   -1.5426052909
H       -0.4156992681    0.0373741258    0.1451008361
H        1.9543832992   -3.2253250571   -0.9651100810
H        0.9540882289   -2.4482152021   -2.1998369917
H       -1.4821195449   -2.0394624193    0.9228203507
H       -2.4802804813   -1.3073168875   -0.3538658353
H       -0.1000351914   -4.5439859490   -1.4549188152
H       -0.0174641745   -4.0257307442    0.2442899053
H        5.0498267460   -4.6593882606    2.7604784116
H        3.7840777702   -4.0808146726    3.8558482317
H        3.4017655173   -4.3514583810    2.1274305178
H       -3.4938699172   -3.4061216495   -0.9128271446
H       -2.5599251071   -4.2852985187    0.3243694775
H       -2.4818461944   -4.7815874962   -1.3864225623
34   
Generated by ForceBalance from scan.xyz: Frame 8 of 15
C        2.9821447619   -3.9591539222    0.9088475854
C        3.9197983408   -4.4633774696    1.7476039521
C        1.7021540826   -1.0729394358    3.4701823513
C        2.5031776050   -2.6929407788    1.4995339873
C        3.0591441377   -2.7024054958    2.7942845350
C        1.4753416924   -1.7440323090    1.2657904315
C       -0.4442255333   -0.8765100446   -0.0215054622
C        1.1634801176   -2.2913910634   -1.1419812965
C       -1.5177399886   -1.9439715777   -0.2520001571
C        0.0963145691   -3.3665698016   -1.3580332429
C        5.4006576506   -2.8418255162    2.1830461156
C       -2.2663042265   -3.7261624909   -1.7020664826
N        2.7344303565   -1.8777622744    3.7840990855
N        1.0823308194   -0.9558474832    2.2986629344
N        4.2324117067   -3.5364143722    2.8474481171
N        0.8720093519   -1.5147386660    0.0556322140
N       -1.2234926365   -2.7388548265   -1.4488999242
H        2.6287085337   -4.4471327465    0.0102688808
H        4.5399497572   -5.3422819767    1.6179885495
H        1.3339781106   -0.4307912956    4.2687993936
H       -0.4382094099   -0.1714644766   -0.8606901130
H       -0.6280865896   -0.3299576343    0.9007802874
H        2.1640263194   -2.7147525657   -1.0875339893
H        1.1434800158   -1.6042349324   -1.9961837366
H       -1.5868750904   -2.5801020440    0.6516912653
H       -2.4897730118   -1.4573973268   -0.3895189663
H        0.2942399225   -3.9023135495   -2.2936039864
H        0.1453291072   -4.1021012090   -0.5310626376
H        5.1129840209   -2.4082511941    1.2196290517
H        5.7701952479   -2.0534710945    2.8470278818
H        6.2001836762   -3.5716876864    2.0421966028
H       -3.2299841008   -3.2211872528   -1.8228335748
H       -2.3660216736   -4.4678870155   -0.8872796909
H       -2.0472825335   -4.2650984990   -2.6296243804
34   
Generated by ForceBalance from scan.xyz: Frame 9 of 15
C        3.6791238362   -3.6415921110    0.5390319268
C        4.5940704829   -4.1045795407    1.4275176385
C        1.4603420804   -1.6319844398    3.3286979425
C        2.7458730312   -2.7941781175    1.2857680645
C        3.1188205657   -2.9466244490    2.6350575570
C        1.5672761206   -2.0330818571    1.0475783529
C       -0.1184202610   -0.8877625755   -0.3256757880
C        1.0300789987   -2.7994280243   -1.2533593811
C       -1.4281791256   -1.6753543262   -0.3114656022
C       -0.2867323455   -3.5827205030   -1.2352261364
C        5.4813786700   -2.4936493604    2.7728445849
C       -2.6863603729   -3.4173681371   -1.4179230986
N        2.5320794853   -2.3534274674    3.6783781041
N        0.9600229649   -1.4452469307    2.1034689069
N        4.4088373500   -3.5474679748    2.7507300717
N        1.0399627973   -1.7805448817   -0.2015045002
N       -1.4284645320   -2.6811900014   -1.3790858037
H        3.6787963339   -3.8758344214   -0.5165503341
H        5.4786306486   -4.6999389935    1.2347675622
H        0.9253045933   -1.1375450946    4.1380888963
H       -0.0230564536   -0.3632003270   -1.2833512020
H       -0.1006113382   -0.1627555779    0.4848350895
H        1.8599517376   -3.4872861563   -1.1275992076
H        1.1426582568   -2.2982641413   -2.2213764959
H       -1.5609099731   -2.1341734869    0.6854324004
H       -2.2661356466   -0.9892926338   -0.4785671256
H       -0.2923666359   -4.2947323264   -2.0687322099
H       -0.3406881849   -4.1675934563   -0.2954967602
H        5.3631207129   -1.8028620115    1.9297402566
H        5.4198217427   -1.9415552232    3.7143158107
H        6.4556715542   -2.9838518763    2.7187105081
H       -3.5157579162   -2.7199635463   -1.5736391512
H       -2.8837964915   -3.9848148368   -0.4888604279
H       -2.6757062459   -4.1242248346   -2.2541552380
34   
Generated by ForceBalance from scan.xyz: Frame 10 of 15
C        3.7300926514   -3.5191785110    0.4338711534
C        4.6574122713   -3.9866061327    1.3118863838
C        1.4993569088   -1.5800559515    3.2611091859
C        2.7626773908   -2.7472548129    1.2052798035
C        3.1505175536   -2.8960815155    2.5503586453
C        1.5703775582   -2.0023753879    0.9828580902
C       -0.1420292018   -0.8934757556   -0.3858358044
C        0.9944820768   -2.8297215766   -1.2834114329
C       -1.4496324798   -1.6825341627   -0.3275735649
C       -0.3218676557   -3.6116555626   -1.2207690260
C        5.5240464602   -2.6261388290    2.9965648934
C       -2.7242965269   -3.4533780234   -1.3667915032
N        2.5706420579   -2.3026304072    3.6011308724
N        0.9756531495   -1.4094733431    2.0404629449
N        4.4029395612   -3.5463659584    2.6489470298
N        1.0212207979   -1.7794017588   -0.2626052822
N       -1.4670670839   -2.7151354094   -1.3693353629
H        3.7487231162   -3.6994793863   -0.6321778105
H        5.5634689826   -4.5435644859    1.1060793941
H        0.9803834045   -1.0725397008    4.0728598617
H       -0.0668031034   -0.3918013702   -1.3575231004
H       -0.1102673050   -0.1491615975    0.4068253138
H        1.8255930265   -3.5153206996   -1.1478890445
H        1.0924268233   -2.3586549847   -2.2680437212
H       -1.5631256848   -2.1164485233    0.6827001485
H       -2.2918861667   -1.0021609166   -0.4965452421
H       -0.3412054237   -4.3468321780   -2.0337160175
H       -0.3593984866   -4.1699737791   -0.2642485937
H        5.5801580768   -1.8014880881    2.2759652099
H        5.3639761064   -2.2258599375    3.9998074584
H        6.4595352501   -3.1898939688    2.9860774149
H       -3.5574134067   -2.7611761368   -1.5260284509
H       -2.9045475696   -3.9965462834   -0.4198505029
H       -2.7272888800   -4.1819191985   -2.1842927402
34   
Generated by ForceBalance from scan.xyz: Frame 11 of 15
C        3.7586634468   -3.3976839434    0.3541955972
C        4.7078416647   -3.8498369027    1.2220490946
C        1.5480310432   -1.4920624473    3.2151715369
C        2.7777787053   -2.6753537029    1.1448508488
C        3.1932196451   -2.8023401436    2.4864663329
C        1.5721304570   -1.9452651456    0.9418041681
C       -0.1755359486   -0.8741181487   -0.4133471240
C        0.9546275873   -2.8245818551   -1.2917599833
C       -1.4780849724   -1.6675964009   -0.3162304865
C       -0.3581694201   -3.6085971366   -1.1909778426
C        5.5440579235   -2.7377963879    3.1750481038
C       -2.7631146815   -3.4622316732   -1.3003811921
N        2.6278787895   -2.2040857697    3.5446894939
N        0.9947965508   -1.3440370775    2.0026541584
N        4.4217571588   -3.4784548695    2.5583242197
N        0.9952682222   -1.7502299930   -0.2963827454
N       -1.5091897001   -2.7194879220   -1.3380750889
H        3.7742512867   -3.5590668255   -0.7147551140
H        5.6267887731   -4.3820117803    1.0087791640
H        1.0443774406   -0.9728853210    4.0291190804
H       -0.1221360096   -0.3885225048   -1.3947171578
H       -0.1325220448   -0.1162160377    0.3659365214
H        1.7888219667   -3.5057397013   -1.1498074116
H        1.0378553923   -2.3781352442   -2.2892240995
H       -1.5712030585   -2.0830887343    0.7038211742
H       -2.3265163563   -0.9943023683   -0.4827751517
H       -0.3885542819   -4.3601401276   -1.9885039284
H       -0.3776806418   -4.1476244701   -0.2229093447
H        5.7671821405   -1.8313815085    2.6003483719
H        5.2748965881   -2.4626326665    4.1958930485
H        6.4261403343   -3.3821736967    3.2011351593
H       -3.6016538051   -2.7763002377   -1.4584262532
H       -2.9251980194   -3.9881718457   -0.3404631630
H       -2.7769370070   -4.2061131497   -2.1038663030
34   
Generated by ForceBalance from scan.xyz: Frame 12 of 15
C        3.7893016733   -3.3100523327    0.2850087737
C        4.7570004193   -3.7443209033    1.1490226898
C        1.5896237151   -1.4097551828    3.1546081077
C        2.7972199698   -2.6184780183    1.0817944985
C        3.2357129551   -2.7145144414    2.4219979902
C        1.5821057398   -1.9007777961    0.8880806426
C       -0.2057809594   -0.8798654978   -0.4532966325
C        0.9406893668   -2.8250833085   -1.3204055937
C       -1.4931804131   -1.6926738555   -0.3200962462
C       -0.3568766354   -3.6288497722   -1.1839971195
C        5.5425134993   -2.9005205538    3.3063460405
C       -2.7654966024   -3.5239194078   -1.2516008466
N        2.6778423747   -2.1084709419    3.4815681924
N        1.0164376993   -1.2871852375    1.9474751052
N        4.4423818853   -3.4068426161    2.4749820755
N        0.9812961872   -1.7343464437   -0.3429211161
N       -1.5251641144   -2.7613727631   -1.3242533455
H        3.8060541894   -3.4631803024   -0.7848978323
H        5.6804098181   -4.2678780330    0.9356932744
H        1.0949418640   -0.8786366959    3.9663271493
H       -0.1780113486   -0.4091631754   -1.4429759835
H       -0.1613759552   -0.1091754171    0.3132730698
H        1.7883713672   -3.4901322131   -1.1823029647
H        0.9989780440   -2.3935124029   -2.3261876315
H       -1.5612172027   -2.0929886517    0.7080085465
H       -2.3556244462   -1.0362345760   -0.4820799930
H       -0.3891240256   -4.3935164111   -1.9689011855
H       -0.3501921456   -4.1525068582   -0.2073633627
H        5.9176931130   -1.9493203612    2.9122880638
H        5.1824546315   -2.7488570021    4.3245728026
H        6.3512432729   -3.6352555127    3.3184852657
H       -3.6182182200   -2.8546043788   -1.4051339912
H       -2.9013850014   -4.0367341174   -0.2805234853
H       -2.7814408695   -4.2810053692   -2.0426419634
34   
Generated by ForceBalance from scan.xyz: Frame 13 of 15
C        3.7942834937   -3.2323400021    0.2419381845
C        4.7791621828   -3.6486757219    1.1018077451
C        1.6197912598   -1.3059544101    3.1153522074
C        2.8057983788   -2.5448270682    1.0406349103
C        3.2697065500   -2.6002462619    2.3776056598
C        1.5838549185   -1.8355236891    0.8560915543
C       -0.2424398707   -0.8647121969   -0.4705216666
C        0.9313608864   -2.7963548713   -1.3327152720
C       -1.5108989948   -1.7020642760   -0.3101567358
C       -0.3472690724   -3.6249705344   -1.1694204946
C        5.4987147520   -3.0267234685    3.4064465959
C       -2.7581679561   -3.5701471834   -1.2014163140
N        2.7192399232   -1.9872861333    3.4385892461
N        1.0288795290   -1.2093029511    1.9134208242
N        4.4622828723   -3.2994271941    2.4146701694
N        0.9620155068   -1.6950801291   -0.3673719246
N       -1.5352873657   -2.7830709834   -1.3014905534
H        3.8032859587   -3.3971811723   -0.8260578491
H        5.7008036435   -4.1754897826    0.8901971390
H        1.1295260205   -0.7674441566    3.9249182711
H       -0.2377694710   -0.4050316101   -1.4657479885
H       -0.2028422596   -0.0847265665    0.2868191305
H        1.7948928175   -3.4418530670   -1.2000682727
H        0.9662928392   -2.3740830502   -2.3435233589
H       -1.5560966744   -2.0918215518    0.7232947925
H       -2.3889170827   -1.0652881449   -0.4670192346
H       -0.3750014610   -4.3984390166   -1.9458560193
H       -0.3158119552   -4.1379552050   -0.1876107464
H        6.0235073247   -2.0932260987    3.1742035267
H        5.0349738483   -2.9369874003    4.3893146187
H        6.2141754336   -3.8526295972    3.4198109505
H       -3.6269181968   -2.9204947471   -1.3495857894
H       -2.8688752612   -4.0743269149   -0.2226018347
H       -2.7701194821   -4.3366427902   -1.9834446682
34   
Generated by ForceBalance from scan.xyz: Frame 14 of 15
C        3.7589712691   -3.1566036289    0.2058111913
C        4.7596936233   -3.5614512706    1.0577066948
C        1.6205679011   -1.2036794188    3.0901830728
C        2.7820237579   -2.4628644831    1.0089177026
C        3.2746535294   -2.4836182653    2.3390474475
C        1.5557064011   -1.7570147353    0.8361011470
C       -0.3011112699   -0.8149448146   -0.4685244733
C        0.8788795670   -2.7403108835   -1.3357065985
C       -1.5582080800   -1.6640587256   -0.2824045719
C       -0.3881405449   -3.5811526732   -1.1465236302
C        5.4071198807   -3.1442063824    3.4652234760
C       -2.7996807487   -3.5516349314   -1.1400314222
N        2.7309095249   -1.8702501835    3.4043422442
N        1.0130936817   -1.1227115966    1.8947963127
N        4.4627952268   -3.1797618379    2.3591887550
N        0.9129999580   -1.6324928731   -0.3782517772
N       -1.5869828996   -2.7526295631   -1.2653751969
H        3.7575992296   -3.3311266321   -0.8604696685
H        5.6739929437   -4.0992175648    0.8428428514
H        1.1345789782   -0.6643274246    3.9017963689
H       -0.3166310841   -0.3624566058   -1.4669468549
H       -0.2577034680   -0.0292398074    0.2826315624
H        1.7511596141   -3.3756861084   -1.2130142705
H        0.8929720743   -2.3243812011   -2.3496628069
H       -1.5831571193   -2.0466783245    0.7544137974
H       -2.4451676294   -1.0375326684   -0.4300566074
H       -0.4201047248   -4.3603241595   -1.9170936777
H       -0.3356810434   -4.0868323623   -0.1618146271
H        6.1228529297   -2.3234189086    3.3441119531
H        4.8506863070   -2.9925563723    4.3904779879
H        5.9498188242   -4.0916477566    3.5196217074
H       -3.6775394062   -2.9121895099   -1.2787073245
H       -2.8893749167   -4.0498904471   -0.1560048880
H       -2.8161359150   -4.3238770354   -1.9163247677
34   
Generated by ForceBalance from scan.xyz: Frame 15 of 15
C        3.7678638399   -3.0740007079    0.1705822168
C        4.7875147972   -3.4519720160    1.0140991497
C        1.6178736705   -1.1487809511    3.0662767875
C        2.7881554959   -2.3903189414    0.9780004623
C        3.3025541857   -2.3786066510    2.3009615417
C        1.5462077639   -1.7091083151    0.8137548278
C       -0.3481716367   -0.8186928218   -0.4739883634
C        0.8763447721   -2.7097615800   -1.3531293543
C       -1.5798564941   -1.7020499882   -0.2775590093
C       -0.3650701951   -3.5858216866   -1.1539852640
C        5.3455014261   -3.2386618363    3.4790282539
C       -2.7763187219   -3.6230199086   -1.1249025322
N        2.7487338256   -1.7832908870    3.3715382445
N        0.9984587097   -1.0849018523    1.8758573907
N        4.5086734386   -3.0395898728    2.3075564735
N        0.8882998066   -1.6031935597   -0.3940534628
N       -1.5874429873   -2.7906848985   -1.2608630157
H        3.7637834248   -3.2483341070   -0.8956425925
H        5.7070050000   -3.9787401124    0.7945960962
H        1.1231277361   -0.6235448804    3.8818475655
H       -0.3843551354   -0.3669113501   -1.4721999474
H       -0.3199329951   -0.0321697229    0.2769189221
H        1.7669815619   -3.3207589963   -1.2402225885
H        0.8692409466   -2.2918361648   -2.3663501761
H       -1.5851307166   -2.0855666003    0.7592387328
H       -2.4850235107   -1.1001695507   -0.4170310796
H       -0.3824380383   -4.3645227345   -1.9255119524
H       -0.2897104002   -4.0911726562   -0.1705837832
H        6.3318857877   -2.7881696725    3.3296230868
H        4.8568255434   -2.7564121415    4.3260910485
H        5.4655981303   -4.3056232759    3.6928256787
H       -3.6728063254   -3.0080977028   -1.2550450321
H       -2.8430949695   -4.1239823552   -0.1404087136
H       -2.7785516160   -4.3951276492   -1.9015085366
