29   

C        3.1035496182   -1.2030968108    1.7475705293
C        1.4094421229   -1.5963517783    0.0800555162
C        2.2017642894   -0.4164173896    2.4735102371
C        0.5139969304   -0.8074465502    0.8124062929
C        8.6199071126   -4.8921965927    2.0928802466
C        2.7327594007   -1.8046142647    0.5267251272
C        0.9008637791   -0.2086009791    2.0125041428
C        8.7125267903   -5.4066462052    0.8272692853
C        6.8304413550   -4.2770350568    0.5700976112
C        3.7024165726   -2.6399621917   -0.2168134320
C        9.8548999350   -6.2649856056    0.3804626897
C        3.4692370824   -3.0192585591   -1.6609711313
N        7.6923237635   -5.0439144021   -0.0420562995
N        4.7791272284   -3.0445091413    0.4268589397
N        5.7314586246   -3.8342884268   -0.1531052853
S        7.1883474330   -3.9126670213    2.2550852092
Cl      -0.2216226370    0.7732107803    2.9209680377
H        4.1037292613   -1.3357592053    2.1474870105
H        1.0391117305   -2.0529708644   -0.8288735443
H        2.5138463080    0.0377616395    3.4066959831
H       -0.4972706173   -0.6602579586    0.4514365777
H        9.3380745885   -5.0648227772    2.8840564092
H        9.5787367604   -7.3193076634    0.4681364716
H       10.0983177058   -6.0473210911   -0.6632988063
H       10.7387869490   -6.0742373940    0.9956385817
H        4.3787724624   -2.8489473485   -2.2441629604
H        3.2051131983   -4.0786458017   -1.7262199202
H        2.6817319875   -2.4232577582   -2.1245704939
H        5.6921050090   -4.1721421984   -1.1092606587
29   

C        3.1284952971   -1.0459908113    1.6552812826
C        1.3577183081   -1.7892167080    0.1976134415
C        2.2097093478   -0.2686097275    2.3700870094
C        0.4444258069   -1.0089971334    0.9170660278
C        8.6461836508   -4.8701101220    2.0732767677
C        2.7207557983   -1.8210723467    0.5526514399
C        0.8608063291   -0.2414519133    2.0076793049
C        8.7254591174   -5.3853532325    0.8070769279
C        6.8344246607   -4.2656949781    0.5728858618
C        3.7068963046   -2.6279424336   -0.1996191748
C        9.8255527623   -6.3018996097    0.3697738682
C        3.5191343883   -2.9059614776   -1.6734895488
N        7.6837586814   -5.0423213760   -0.0445071430
N        4.7653250051   -3.0593983082    0.4543882392
N        5.7284884872   -3.8244051031   -0.1404117500
S        7.2193350499   -3.8858196738    2.2483440845
Cl      -0.2828725471    0.7290994763    2.9016897294
H        4.1689761992   -1.0428452939    1.9642617741
H        0.9866022140   -2.3814472028   -0.6305365557
H        2.5450733126    0.3199159192    3.2160519800
H       -0.6012181709   -0.9988997714    0.6322664679
H        9.3650880322   -5.0539633796    2.8612392084
H        9.4317456558   -7.0530315179   -0.3207835590
H       10.6042316530   -5.7263028580   -0.1379339274
H       10.2625087572   -6.8121575452    1.2328136167
H        4.4213515411   -2.6238203173   -2.2239360843
H        3.3314113250   -3.9722442134   -1.8286404266
H        2.6870101038   -2.3325160402   -2.0883770848
H        5.6897521482   -4.1499947153   -1.1008759154
29   

C        3.1969415057   -0.8544876347    1.5023057106
C        1.4085750505   -1.9076650232    0.2735736442
C        2.2619539924   -0.0623219922    2.1790903271
C        0.4780911594   -1.1123872321    0.9534083143
C        8.6264290556   -4.9675227405    2.1600245456
C        2.7840038695   -1.7956411955    0.5432406672
C        0.8951594511   -0.1836378736    1.9115754807
C        8.7552324312   -5.4145733164    0.8721884222
C        6.8743167097   -4.2807830855    0.6247315227
C        3.7850856355   -2.6001014474   -0.1946948177
C        9.8718005722   -6.3085014595    0.4298089752
C        3.6586278056   -2.7858355416   -1.6899542826
N        7.7473580803   -5.0248298407    0.0002744272
N        4.8126644521   -3.0626915694    0.4842609323
N        5.7977366009   -3.8009748690   -0.1082715850
S        7.1935732756   -3.9913121917    2.3316306434
Cl      -0.2689050337    0.8062014274    2.7567746483
H        4.2528753260   -0.7408929542    1.7261168175
H        1.0531704174   -2.6218594417   -0.4607110565
H        2.5975599552    0.6541452386    2.9197094389
H       -0.5795931801   -1.2137906850    0.7399177714
H        9.3139730416   -5.1945624562    2.9645309953
H        9.5074479027   -7.0156650929   -0.3207440442
H       10.6731619130   -5.7073380161   -0.0081961152
H       10.2693206722   -6.8709182140    1.2793899434
H        4.5605386019   -2.4194057914   -2.1888081300
H        3.5319464396   -3.8467961753   -1.9234570135
H        2.8023929723   -2.2313049891   -2.0831050181
H        5.7994753960   -4.0746257082   -1.0855854719
29   

C        3.1945945422   -0.6967485437    1.3754722603
C        1.4329003170   -2.0556232989    0.4442782100
C        2.2396036804    0.0835062885    2.0382138881
C        0.4813664358   -1.2720886921    1.1084892808
C        8.5814166019   -5.0957180928    2.1797558556
C        2.8039912446   -1.7845038453    0.5790956423
C        0.8752739390   -0.1968983586    1.9116028108
C        8.7417374086   -5.4694682833    0.8722693007
C        6.8765506908   -4.3067202886    0.6404352414
C        3.8199422704   -2.5680245209   -0.1687465865
C        9.8625718050   -6.3475197189    0.4093496154
C        3.7329049996   -2.6503882328   -1.6765113982
N        7.7608866982   -5.0212681427   -0.0023727041
N        4.8243841435   -3.0708558803    0.5137256043
N        5.8234943753   -3.7778881668   -0.0930311759
S        7.1516473361   -4.1182453251    2.3689601243
Cl      -0.3143014712    0.7792068452    2.7370103252
H        4.2489058819   -0.4634128981    1.4831764880
H        1.1035047820   -2.8819409119   -0.1759308418
H        2.5566110225    0.9150632046    2.6566730529
H       -0.5738113095   -1.4954231437    1.0023595714
H        9.2449812142   -5.3747576170    2.9880248928
H        9.5132064502   -7.0063986711   -0.3906466586
H       10.6809454487   -5.7302294827    0.0290551990
H       10.2313878972   -6.9621750953    1.2353665542
H        4.6316371841   -2.2186115280   -2.1263304063
H        3.6472625314   -3.6951233769   -1.9884643299
H        2.8617638090   -2.0996031662   -2.0424509917
H        5.8518858860   -3.9943899133   -1.0841693894
29   

C        3.1355292131   -0.5266297060    1.1914526255
C        1.5006568115   -2.2120368885    0.6399938095
C        2.1465685453    0.2145677315    1.8494165651
C        0.5143304468   -1.4673259597    1.2980783383
C        8.5145198603   -5.2264077664    2.1984969186
C        2.8251535144   -1.7529678542    0.5870476221
C        0.8277213938   -0.2482189176    1.9084910364
C        8.7153667171   -5.5267868072    0.8777784600
C        6.8721287222   -4.3285408884    0.6509183026
C        3.8697234008   -2.5044761948   -0.1649324797
C        9.8416012786   -6.3914564131    0.4029085567
C        3.8223741245   -2.5064553167   -1.6770567680
N        7.7700059929   -5.0166219933   -0.0019929824
N        4.8398755618   -3.0597193617    0.5244879495
N        5.8510405254   -3.7454588137   -0.0866464720
S        7.0898425506   -4.2431022220    2.3956605610
Cl      -0.4051567464    0.6800562381    2.7254819691
H        4.1536245230   -0.1537157031    1.1533002004
H        1.2374216597   -3.1527733912    0.1690185886
H        2.4005089209    1.1576663419    2.3190532160
H       -0.5049503905   -1.8334744356    1.3371603337
H        9.1469587227   -5.5596031637    3.0111884077
H        9.5122294506   -6.9996477947   -0.4443144705
H       10.6789411798   -5.7641423915    0.0855092607
H       10.1757517108   -7.0563952879    1.2043658268
H        4.7269130278   -2.0414412976   -2.0794939348
H        3.7562416147   -3.5334281210   -2.0472566866
H        2.9519419507   -1.9466987162   -2.0314584835
H        5.9130279611   -3.9041146157   -1.0871520123
29   

C        3.0034815596   -0.3343971224    0.9185717896
C        1.6776418110   -2.3478860534    0.8599622816
C        1.9672028346    0.3257853811    1.5901120235
C        0.6432017441   -1.6842926359    1.5306857706
C        8.3997035695   -5.3778394836    2.2277010068
C        2.8677903795   -1.6776422547    0.5427311068
C        0.7772670525   -0.3415966946    1.8997402496
C        8.6546351349   -5.6114156173    0.9028104466
C        6.8638799886   -4.3391456601    0.6589578711
C        3.9649478917   -2.3725855586   -0.1962605202
C        9.7746814766   -6.4862646166    0.4318841765
C        3.9609854567   -2.3338121619   -1.7087062093
N        7.7697850425   -5.0209079140    0.0104661435
N        4.8802286135   -2.9973683591    0.5077720419
N        5.8994703965   -3.6813411194   -0.0919067628
S        6.9988374865   -4.3587816764    2.4139653819
Cl      -0.5155190428    0.4851477112    2.7330251130
H        3.9212005288    0.1968044996    0.6904371274
H        1.5592585290   -3.3903290138    0.5848819212
H        2.0834612443    1.3643948158    1.8769261776
H       -0.2725364441   -2.2120276446    1.7702983864
H        8.9814627201   -5.7765505849    3.0487047568
H        9.4621399972   -7.0462315705   -0.4540745878
H       10.6404616603   -5.8698517800    0.1752435617
H       10.0593051518   -7.1957009757    1.2140771018
H        4.8804552654   -1.8662669997   -2.0723712730
H        3.8967087065   -3.3497337669   -2.1086505247
H        3.1047890214   -1.7573817732   -2.0711125862
H        6.0066631815   -3.7859545570   -1.0956938660
29   

C        2.9266190872   -0.2049464314    0.7402586567
C        1.8910807736   -2.3438404261    1.1473382515
C        1.9100783075    0.4232312685    1.4702616095
C        0.8764523733   -1.7123960648    1.8765322792
C        8.1357396333   -5.7397323725    2.1602125506
C        2.9194927134   -1.5953817800    0.5557691179
C        0.8741137606   -0.3234505468    2.0412188781
C        8.5360698408   -5.7609639535    0.8509664967
C        6.7642674244   -4.4606897175    0.6168037652
C        4.0163370746   -2.2703719942   -0.1956486169
C        9.7646811117   -6.4807339678    0.3884173461
C        4.0553815740   -2.1532705588   -1.7033692952
N        7.7524423514   -5.0229141695   -0.0261279412
N        4.8573773366   -3.0115939562    0.4886196845
N        5.8798561784   -3.6837148107   -0.1186605073
S        6.6994925587   -4.7717200268    2.3483082943
Cl      -0.3924989939    0.4625694061    2.9506383923
H        3.7280041644    0.3903283795    0.3165828132
H        1.8875415996   -3.4236088055    1.0422822563
H        1.9234606403    1.4988081263    1.6023283767
H        0.0857705292   -2.3024052656    2.3250661327
H        8.6442432934   -6.2462996707    2.9703259887
H        9.4923774306   -7.4716864204    0.0152440637
H       10.2450577386   -5.9175215828   -0.4166832456
H       10.4748942020   -6.5910619997    1.2127772920
H        5.0062581482   -1.7152369605   -2.0196959582
H        3.9515868694   -3.1429190877   -2.1574687197
H        3.2387302586   -1.5167661958   -2.0562223228
H        6.0854832452   -3.6391772162   -1.1115069844
29   

C        2.7504928152   -0.1970145339    0.5370552073
C        2.0607088438   -2.3657145452    1.3336253554
C        1.7155172064    0.3975885007    1.2692891486
C        1.0275649136   -1.7671316578    2.0643190023
C        8.0293544526   -5.8619591512    2.1408518301
C        2.9241458514   -1.5903818988    0.5431104580
C        0.8425082108   -0.3813632283    2.0355203602
C        8.4921003898   -5.8096960260    0.8532040643
C        6.7411786182   -4.4827746542    0.6120578914
C        4.0504625404   -2.2175130858   -0.1945211894
C        9.7373310201   -6.5115771822    0.4079456085
C        4.1629668036   -2.0243869921   -1.6904131478
N        7.7558415061   -5.0147201663   -0.0150937726
N        4.8519113995   -3.0111504950    0.4804841667
N        5.8973772386   -3.6562602917   -0.1169853493
S        6.5911042359   -4.8946273636    2.3170502688
Cl      -0.4463420851    0.3635597282    2.9482856366
H        3.4246363502    0.4294600806   -0.0365280126
H        2.2007390265   -3.4406999443    1.3820479900
H        1.5880300588    1.4736600225    1.2514092395
H        0.3662081428   -2.3799783819    2.6655621440
H        8.4956000389   -6.4194292561    2.9429260761
H        9.4776988643   -7.4775254271   -0.0335685034
H       10.2578641510   -5.9072932216   -0.3404201538
H       10.4074939796   -6.6741742200    1.2568149373
H        5.1228964495   -1.5612873471   -1.9357823851
H        4.0953685044   -2.9911052668   -2.1977374789
H        3.3568331666   -1.3816911444   -2.0555634273
H        6.1518368511   -3.5527739654   -1.0940021017
29   

C        2.5840723532   -0.2594293576    0.3842318107
C        2.1943648946   -2.3596709983    1.5006556423
C        1.5298131562    0.3148338933    1.1052268552
C        1.1416478352   -1.7810154760    2.2190614327
C        7.9537772041   -5.9771642910    2.1176360649
C        2.9221799324   -1.6121161030    0.5576784838
C        0.7970060323   -0.4403721822    2.0255859776
C        8.4671029745   -5.8575985849    0.8538435940
C        6.7250114486   -4.5190093260    0.6134536394
C        4.0617295866   -2.2114743719   -0.1742817620
C        9.7297704410   -6.5361885397    0.4217580637
C        4.2462227872   -1.9359550012   -1.6495133009
N        7.7646317919   -5.0176573909    0.0000344124
N        4.8395298693   -3.0421730667    0.4858858053
N        5.9087543158   -3.6551772359   -0.1035206914
S        6.5080995058   -5.0197165026    2.2872304491
Cl      -0.5159183833    0.2801010096    2.9235452871
H        3.1444640437    0.3588938303   -0.3079883857
H        2.4518618418   -3.3990898893    1.6774518755
H        1.2777083094    1.3584597407    0.9575304971
H        0.5889907612   -2.3744166865    2.9380391491
H        8.3887740705   -6.5763840822    2.9070705328
H        9.4887719086   -7.4764473039   -0.0814747885
H       10.2795772372   -5.8931100833   -0.2713002101
H       10.3653412037   -6.7455027966    1.2868399457
H        5.1986357943   -1.4247692779   -1.8162812889
H        4.2476518469   -2.8769873093   -2.2072150889
H        3.4359306362   -1.3115557758   -2.0353725946
H        6.2023961154   -3.4982006150   -1.0622458912
29   

C        2.4325338196   -0.3423954475    0.2529355462
C        2.3248461479   -2.3077438907    1.6404824555
C        1.3613089804    0.2121174365    0.9646792205
C        1.2548748628   -1.7487605795    2.3484527639
C        7.8819280463   -6.0805640568    2.0832129327
C        2.9281775610   -1.6189496408    0.5693049311
C        0.7610161448   -0.4854830617    2.0157807105
C        8.4416990785   -5.9030223065    0.8462193636
C        6.7105635498   -4.5504925161    0.6048760995
C        4.0705077969   -2.2061535077   -0.1653726598
C        9.7186998969   -6.5641496432    0.4294591798
C        4.3228451297   -1.8549009390   -1.6136882773
N        7.7719486967   -5.0220682331    0.0075841383
N        4.8305816985   -3.0667997856    0.4792175242
N        5.9208270608   -3.6524739100   -0.0996648888
S        6.4316932542   -5.1285328327    2.2442722488
Cl      -0.5733877511    0.2113888944    2.9006180651
H        2.8794918970    0.2475685787   -0.5384558203
H        2.6876569912   -3.2894948069    1.9278973033
H        0.9919848221    1.1976990827    0.7062413827
H        0.8039871555   -2.2983803757    3.1664548713
H        8.2869360353   -6.7175679502    2.8589069179
H        9.4953734177   -7.4805956859   -0.1234153255
H       10.2930940375   -5.8919786485   -0.2142996066
H       10.3229738787   -6.8130436022    1.3064029198
H        5.2465566667   -1.2754737008   -1.6990490382
H        4.4248577173   -2.7685332695   -2.2065199710
H        3.4979715910   -1.2784734514   -2.0387291034
H        6.2501282583   -3.4488716154   -1.0378034099
29   

C        2.5516747244   -0.0660144021    0.8413084550
C        2.1135605405   -2.3680627005    1.3863706380
C        1.7248972918    0.3339888088    1.8990544019
C        1.2892319870   -1.9622093684    2.4415855978
C        5.7509659302   -7.3190893361   -1.1787172597
C        2.7611230709   -1.4265233467    0.5566655755
C        1.0851916472   -0.6076925552    2.7071037295
C        6.4005727270   -6.7057612731   -2.2164773126
C        5.2572891359   -4.9610489197   -1.4863066749
C        3.6282788696   -1.8676322497   -0.5591567609
C        7.3909714857   -7.4135998156   -3.0880223949
C        4.0616311173   -0.9102166669   -1.6450817028
N        6.1198148897   -5.3562834980   -2.3837757598
N        4.0198734377   -3.1259804616   -0.5634795724
N        4.8632337076   -3.6304708032   -1.5128626926
S        4.7124509678   -6.1913813737   -0.3509066066
Cl       0.0572777242   -0.1014300144    4.0247964186
H        3.0354982083    0.7173382967    0.2723546557
H        2.2432325445   -3.4318914314    1.2148820347
H        1.5794366713    1.3884665373    2.1028332880
H        0.8027452850   -2.7058036954    3.0620157739
H        5.8705938297   -8.3589630087   -0.9032830157
H        6.8980817130   -7.7571512351   -4.0014971449
H        8.2032308559   -6.7324925904   -3.3572739798
H        7.8136530290   -8.2750940733   -2.5633311390
H        5.1110427044   -0.6381414362   -1.5002951065
H        3.9552119889   -1.3832159315   -2.6255697966
H        3.4537628228   -0.0045886708   -1.6687847152
H        5.2899962568   -3.0799293569   -2.2509210728
29   

C        2.3237398333   -0.0866313973    0.6461110515
C        2.3095869425   -2.3330385278    1.5024697781
C        1.4352994733    0.2940097455    1.6608213965
C        1.4228743486   -1.9456653070    2.5124928964
C        5.6937219733   -7.3486253090   -1.1862349868
C        2.7842542972   -1.4107702184    0.5405130985
C        0.9767259552   -0.6281452766    2.6018130520
C        6.3688481544   -6.7427228622   -2.2119935159
C        5.3038098935   -4.9652929163   -1.4435177878
C        3.7223105480   -1.8444774327   -0.5209381216
C        7.3218656264   -7.4763269101   -3.1036603092
C        4.2523150168   -0.8930025920   -1.5680491953
N        6.1491576825   -5.3786231785   -2.3491243568
N        4.0927124914   -3.1098761682   -0.5242300256
N        4.9621854530   -3.6200892122   -1.4470865000
S        4.7068547982   -6.1939249135   -0.3327631343
Cl      -0.1301746935   -0.1429890972    3.8622335500
H        2.6198469884    0.7009908758   -0.0305643066
H        2.6257140808   -3.3709184317    1.4776095275
H        1.0940809496    1.3208694727    1.7225704115
H        1.0769583509   -2.6755206957    3.2351302834
H        5.7659893624   -8.3988219734   -0.9344779760
H        6.8061100040   -7.7880230257   -4.0159924614
H        8.1570333455   -6.8236993895   -3.3732962656
H        7.7159624282   -8.3607520547   -2.5951742609
H        5.3424034494   -0.8412263328   -1.4926109386
H        3.9954973870   -1.2687440075   -2.5628403865
H        3.8689086457    0.1214807844   -1.4963893380
H        5.4044152407   -3.0752682647   -2.1802737662
29   

C        2.0925954732   -0.1962426710    0.4886399674
C        2.4660111953   -2.2666593037    1.6558335818
C        1.1484913213    0.1703657985    1.4564590049
C        1.5217387539   -1.8949299129    2.6190902350
C        5.6649662456   -7.3363214285   -1.2458865909
C        2.7776713247   -1.4210588956    0.5685505681
C        0.8553043921   -0.6723314101    2.5301419435
C        6.3515241937   -6.7158266911   -2.2551623663
C        5.3427383415   -4.9353687920   -1.4206206292
C        3.7812420112   -1.8232405119   -0.4427294970
C        7.2730894859   -7.4474030141   -3.1808583470
C        4.3652058702   -0.8227846618   -1.4131727084
N        6.1721983807   -5.3417900905   -2.3439206392
N        4.1409905868   -3.0907798636   -0.4708499149
N        5.0338903309   -3.5827445627   -1.3807069033
S        4.7173893009   -6.1830827064   -0.3473162668
Cl      -0.3239615678   -0.2091135509    3.7318009153
H        2.2507623203    0.4944101485   -0.3295027493
H        2.9613233179   -3.2261999369    1.7648442595
H        0.6296223231    1.1183030865    1.3740061282
H        1.3026748250   -2.5621727202    3.4445191022
H        5.7063274057   -8.3963971977   -1.0313234961
H        6.7406316018   -7.7071143532   -4.0998996242
H        8.1281130860   -6.8138268125   -3.4329894947
H        7.6398736094   -8.3632490101   -2.7088980040
H        5.4492852051   -0.9525862585   -1.4781680130
H        3.9346235564   -0.9777318105   -2.4065870424
H        4.1938721669    0.2087728966   -1.1023031771
H        5.4805294110   -3.0277359415   -2.1034775190
29   

C        1.9062605249   -0.2971349334    0.3442880173
C        2.5574046112   -2.1525868995    1.7346531615
C        0.9395870394    0.0656392092    1.2906100307
C        1.5896947956   -1.7856998322    2.6766992046
C        5.6950923186   -7.3023521292   -1.2516881708
C        2.7426732884   -1.4071612947    0.5531882423
C        0.7738861986   -0.6720167312    2.4654485692
C        6.3764246704   -6.6718529413   -2.2583118423
C        5.3242586757   -4.9094011972   -1.4390454268
C        3.7547389855   -1.8085589353   -0.4487221090
C        7.2618369055   -7.4001785366   -3.2211779122
C        4.4070082073   -0.7809911037   -1.3451221020
N        6.1555527998   -5.3051986315   -2.3653242067
N        4.0863912381   -3.0817812764   -0.5017757680
N        4.9962166416   -3.5612439144   -1.4012587306
S        4.7280202634   -6.1629578499   -0.3561517219
Cl      -0.4340104024   -0.2159433211    3.6411119266
H        1.9802680064    0.2926689601   -0.5616846303
H        3.1715433379   -3.0265550024    1.9272354506
H        0.3037799868    0.9251238467    1.1128547511
H        1.4673254501   -2.3718495754    3.5800060674
H        5.7425534280   -8.3635014170   -1.0438039664
H        7.1818585281   -6.9493793024   -4.2144248447
H        8.3005219492   -7.3378570297   -2.8855125524
H        6.9693675760   -8.4519305001   -3.2875787550
H        5.4952955313   -0.8792366102   -1.2945839623
H        4.0877376986   -0.9356954589   -2.3797209156
H        4.1551749992    0.2375908805   -1.0411004553
H        5.4514904147   -2.9974003533   -2.1117542895
29   

C        1.7822378618   -0.4242069420    0.2297570962
C        2.6810214769   -2.0085033684    1.8081917907
C        0.7977776957   -0.0637899306    1.1581965089
C        1.6948915529   -1.6449865691    2.7326273266
C        5.5966244550   -7.3204203231   -1.3379224918
C        2.7515270176   -1.3907701377    0.5467547359
C        0.7469564046   -0.6671756345    2.4182464397
C        6.3394789839   -6.6762672083   -2.2909179848
C        5.2958900474   -4.9135523084   -1.4612786030
C        3.7694402211   -1.8021769389   -0.4472620673
C        7.2491258020   -7.3968397332   -3.2368783217
C        4.4936446477   -0.7595532068   -1.2687349946
N        6.1586721768   -5.3014021768   -2.3617999157
N        4.0667024569   -3.0817306170   -0.5198337821
N        5.0017464133   -3.5587318380   -1.3942599995
S        4.6188854770   -6.1849073351   -0.4490530356
Cl      -0.4832128093   -0.2157650544    3.5724130146
H        1.7822044459    0.0493852615   -0.7455597787
H        3.3983883730   -2.7796474796    2.0702491089
H        0.0593939795    0.6866593095    0.9010151292
H        1.6595100623   -2.1287397333    3.7017576546
H        5.6070989415   -8.3886680731   -1.1640549575
H        7.2326480570   -6.9073465828   -4.2147767952
H        8.2712010545   -7.3807591258   -2.8489017449
H        6.9281789025   -8.4353426443   -3.3578361722
H        5.5727030203   -0.8430306887   -1.1098692381
H        4.2801317003   -0.9086863781   -2.3309904495
H        4.1833865096    0.2489887974   -0.9825116188
H        5.5055320093   -2.9856726383   -2.0634597209
29   

C        1.6701449596   -0.5938102025    0.1485782222
C        2.8005125770   -1.8319407501    1.8814788198
C        0.6669470283   -0.2408513387    1.0595693148
C        1.7953332878   -1.4769580560    2.7887827778
C        5.4990012283   -7.3299882917   -1.4341084556
C        2.7624172527   -1.3778752743    0.5533502181
C        0.7222392270   -0.6749485328    2.3879244948
C        6.3014603400   -6.6756358821   -2.3300877477
C        5.2772188785   -4.9118012701   -1.4789393782
C        3.8015750236   -1.7925242901   -0.4233856540
C        7.2277537985   -7.3902090943   -3.2643559842
C        4.5946035282   -0.7368428138   -1.1611385888
N        6.1660254158   -5.2939731930   -2.3563225024
N        4.0617992116   -3.0768480252   -0.5261333459
N        5.0214867407   -3.5515191038   -1.3745432086
S        4.5189562297   -6.1969062979   -0.5447494743
Cl      -0.5310822338   -0.2338419939    3.5209712720
H        1.5967331072   -0.2586660153   -0.8801239723
H        3.6163689527   -2.4699664670    2.2052854259
H       -0.1678151217    0.3700933549    0.7364244853
H        1.8418946509   -1.8311783238    3.8119274063
H        5.4691025310   -8.4036563455   -1.3005965425
H        7.2698251091   -6.8635382651   -4.2219623763
H        8.2318904706   -7.4238391178   -2.8331006299
H        6.8787959617   -8.4117668647   -3.4398085407
H        5.6568377915   -0.8294899326   -0.9170845430
H        4.4664867910   -0.8601001652   -2.2402695917
H        4.2574828085    0.2641385398   -0.8771794757
H        5.5726800349   -2.9712767563   -1.9986638590
29   

C        1.5738173093   -0.8245973682    0.0642534545
C        2.8952454535   -1.5927718148    1.9287981143
C        0.5485954320   -0.4584691121    0.9450172991
C        1.8681727685   -1.2255235344    2.8063887500
C        5.3814610684   -7.3487699065   -1.5733855471
C        2.7670216958   -1.3807728306    0.5480870660
C        0.6876814835   -0.6514598322    2.3234839389
C        6.2488905692   -6.6875177109   -2.4011225721
C        5.2522995358   -4.9240674874   -1.5168879630
C        3.8483878308   -1.7989052280   -0.3897328649
C        7.1902872993   -7.3960630987   -3.3248262455
C        4.7045268840   -0.7374621044   -1.0444716605
N        6.1665538850   -5.3017540121   -2.3697869491
N        4.0609881184   -3.0862359665   -0.5397028740
N        5.0427649686   -3.5605877910   -1.3625247237
S        4.4035093287   -6.2184475550   -0.6783059858
Cl      -0.5921887302   -0.1934960709    3.4195588188
H        1.4412720951   -0.6788061354   -1.0021651697
H        3.7981746707   -2.0517185820    2.3174293108
H       -0.3671827283   -0.0252573207    0.5600957767
H        1.9819542124   -1.3913938939    3.8712882608
H        5.3052783773   -8.4252619174   -1.4907306145
H        7.2944741734   -6.8309089784   -4.2553653624
H        8.1720207763   -7.4861054899   -2.8520898174
H        6.8131560094   -8.3952418285   -3.5605410239
H        5.7483944571   -0.8608896777   -0.7420005188
H        4.6376622408   -0.8222702826   -2.1327898099
H        4.3673620425    0.2596308782   -0.7466615510
H        5.6457244510   -2.9758063505   -1.9321538633
29   

C        1.5613619961   -1.0618340796    0.1393338493
C        3.0559659428   -1.2965161264    2.0166976816
C        0.5459939710   -0.6347807436    1.0038617798
C        2.0388060317   -0.8682495082    2.8782191172
C        5.0980208488   -7.3557213044   -1.8985160656
C        2.8286965820   -1.3933844943    0.6363144241
C        0.7758330142   -0.5313715769    2.3799513643
C        6.1297819667   -6.7054872963   -2.5210552681
C        5.1478022915   -4.9439217582   -1.6168832720
C        3.9189654320   -1.8241890141   -0.2901936870
C        7.1957134481   -7.4211589120   -3.2912779559
C        4.8340175014   -0.7719456378   -0.8776584857
N        6.1573709634   -5.3276685776   -2.3513992623
N        4.0389149214   -3.1070758630   -0.5423953369
N        5.0280943291   -3.5863702604   -1.3536321806
S        4.0754003446   -6.2229962470   -1.0578112708
Cl      -0.4903953596    0.0060771967    3.4555816558
H        1.3645388364   -1.1406317157   -0.9243744200
H        4.0282600967   -1.5581016899    2.4199247561
H       -0.4307826620   -0.3819054721    0.6083328673
H        2.2260173402   -0.7965904053    3.9432630755
H        4.9412188731   -8.4264779614   -1.9173279127
H        6.9517975334   -7.4078537953   -4.3569842070
H        8.1592265723   -6.9259022098   -3.1411722173
H        7.2775067671   -8.4587937953   -2.9554781483
H        5.8671217596   -0.9629796451   -0.5737098664
H        4.7750440263   -0.7935857688   -1.9695989784
H        4.5417977420    0.2225972643   -0.5281341730
H        5.7463002220   -3.0115623267   -1.7823509227
29   

C        1.5517503003   -1.4138460068    0.2083646926
C        3.0730926355   -0.9838684260    2.0299241681
C        0.4851256928   -0.9630279319    0.9953900178
C        2.0038823252   -0.5328271164    2.8134178204
C        5.0096008833   -7.3234693107   -2.0643645610
C        2.8566745827   -1.4376884628    0.7203230245
C        0.7010527581   -0.5182658099    2.3040450168
C        6.0845483713   -6.6790953615   -2.6158498519
C        5.1453292448   -4.9375843720   -1.6310707540
C        3.9945139527   -1.8595807158   -0.1449185505
C        7.1447344861   -7.3899394675   -3.3983239589
C        4.9367950362   -0.8033812494   -0.6791110319
N        6.1609348711   -5.3165584070   -2.3596685529
N        4.0736993650   -3.1277631046   -0.4769160513
N        5.0701411879   -3.5952209563   -1.2860870269
S        4.0065030806   -6.2033743624   -1.1842202333
Cl      -0.6299263597    0.0480538797    3.2822756107
H        1.3682384639   -1.7545643757   -0.8051799831
H        4.0766686151   -0.9835867949    2.4409359836
H       -0.5202004663   -0.9562302591    0.5907263793
H        2.1814597384   -0.1887899719    3.8256578731
H        4.8121518835   -8.3838848499   -2.1537991703
H        6.9246630629   -7.3176008745   -4.4668450885
H        8.1194737354   -6.9332711304   -3.2046548004
H        7.1873059039   -8.4445872317   -3.1118972575
H        5.9602773495   -1.0205063800   -0.3606231017
H        4.9004964016   -0.7891227949   -1.7722091810
H        4.6527640862    0.1845616879   -0.3051099244
H        5.8236335892   -3.0244259065   -1.6555015179
29   

C        1.5734138330   -1.6549796411    0.2956960588
C        3.0681636229   -0.7369299907    1.9510992550
C        0.4762235554   -1.2064501542    1.0406968825
C        1.9677719862   -0.2896672483    2.6924561154
C        4.9248094456   -7.2828958615   -2.1788089033
C        2.8841721437   -1.4364733401    0.7476348019
C        0.6628385535   -0.5207445151    2.2452930808
C        6.0451323505   -6.6616547601   -2.6623924710
C        5.1345651949   -4.9223868259   -1.6472897314
C        4.0419314028   -1.8614908119   -0.0795509985
C        7.1079484509   -7.3842550852   -3.4303847150
C        5.0412538034   -0.8269699491   -0.5473965324
N        6.1633862029   -5.3138857269   -2.3501985363
N        4.0871612205   -3.1176712243   -0.4636116602
N        5.0963477001   -3.5922156115   -1.2526892564
S        3.9306190361   -6.1575230316   -1.2952699455
Cl      -0.7070445203    0.0401100795    3.1715917073
H        1.4101290707   -2.1833889284   -0.6379742056
H        4.0707637869   -0.5428778428    2.3159253854
H       -0.5303515120   -1.3900064803    0.6835053558
H        2.1222386836    0.2430812753    3.6235099725
H        4.6907339133   -8.3305211097   -2.3172589297
H        6.9332503779   -7.2641797872   -4.5029832386
H        8.0907732559   -6.9734994831   -3.1823729611
H        7.0993636534   -8.4495581148   -3.1830278690
H        6.0404270469   -1.0824665813   -0.1833955597
H        5.0599140278   -0.7937181258   -1.6405737874
H        4.7718129941    0.1649763236   -0.1737551524
H        5.8862437105   -3.0382122126   -1.5676160677
29   

C        1.6171136347   -1.8208713071    0.4035976886
C        3.0575919677   -0.5341731476    1.8481458003
C        0.5032405276   -1.3869171550    1.1321148207
C        1.9397585984   -0.1032079379    2.5728231348
C        4.8417819036   -7.2307305127   -2.2738726462
C        2.9136934256   -1.4067286714    0.7549840386
C        0.6537051721   -0.5250743477    2.2225292331
C        6.0039291062   -6.6418738725   -2.6953335212
C        5.1248751848   -4.8977296576   -1.6610367224
C        4.0806579251   -1.8407763793   -0.0473040898
C        7.0654229966   -7.3839515396   -3.4463881374
C        5.1489215952   -0.8440212651   -0.4366326053
N        6.1638619751   -5.3101211370   -2.3364554405
N        4.0990601130   -3.0872999729   -0.4677032009
N        5.1225808277   -3.5792691112   -1.2272436708
S        3.8597925712   -6.0923523217   -1.3933543901
Cl      -0.7374852956    0.0151923506    3.1291104420
H        1.4747360662   -2.4886041572   -0.4401160934
H        4.0421547257   -0.1927367409    2.1475077857
H       -0.4886499760   -1.7208455154    0.8508351080
H        2.0660798638    0.5644367123    3.4171280865
H        4.5715316605   -8.2631682942   -2.4542354273
H        6.9372336961   -7.2231852933   -4.5202352104
H        8.0538095135   -7.0225713666   -3.1486289566
H        7.0040283730   -8.4551842670   -3.2346968919
H        6.1084470975   -1.1386338870   -0.0022089218
H        5.2491347006   -0.8110559547   -1.5254117978
H        4.8945736576    0.1601491075   -0.0871206251
H        5.9458176020   -3.0482651148   -1.4924725754
29   

C        1.6594230187   -1.9602811568    0.5259989799
C        3.0168634784   -0.3769424835    1.7359581484
C        0.5366904825   -1.5495327876    1.2541291447
C        1.8893655424    0.0289992783    2.4601117155
C        4.7739235840   -7.1695561749   -2.3793987081
C        2.9227413522   -1.3801659598    0.7512358250
C        0.6402115210   -0.5512980496    2.2259571925
C        5.9779899415   -6.6167052222   -2.7252434924
C        5.1153767267   -4.8667788923   -1.6868942803
C        4.0968534930   -1.8178811448   -0.0356499507
C        7.0468431047   -7.3802530960   -3.4436168999
C        5.2280385839   -0.8607286212   -0.3340763512
N        6.1707704784   -5.3023978349   -2.3209876870
N        4.0985344569   -3.0530784272   -0.4921237715
N        5.1399746904   -3.5613629611   -1.2158345115
S        3.7931357643   -6.0166837101   -1.5166357135
Cl      -0.7622747190   -0.0414007949    3.1327377018
H        1.5424950214   -2.7381178615   -0.2219176681
H        3.9683404880    0.0891692597    1.9634088596
H       -0.4260157135   -2.0098903123    1.0650337075
H        1.9804656744    0.7998851262    3.2164312111
H        4.4734276893   -8.1850861064   -2.6028091247
H        6.9859283957   -7.1779531711   -4.5163647751
H        8.0316394870   -7.0738222587   -3.0797087968
H        6.9276982201   -8.4541573751   -3.2743144585
H        6.1325945712   -1.1807130827    0.1909511351
H        5.4312631085   -0.8473759062   -1.4088349238
H        4.9819318993    0.1600389513   -0.0326295971
H        5.9953580492   -3.0556032218   -1.4220617592
29   

C        1.7214130773   -2.0872880607    0.6633168289
C        2.9509541846   -0.2398500598    1.6037169705
C        0.5889349425   -1.6977612897    1.3877882799
C        1.8129736387    0.1427023306    2.3242472281
C        4.7133199066   -7.1098871317   -2.4877950576
C        2.9282127725   -1.3613675554    0.7464252832
C        0.6224403674   -0.5791166584    2.2220025588
C        5.9541325027   -6.5965164791   -2.7560163935
C        5.1057674920   -4.8407406325   -1.7159144298
C        4.1126750862   -1.8012238488   -0.0246090483
C        7.0295546419   -7.3830837860   -3.4388612393
C        5.3029071174   -0.8940093406   -0.2340282901
N        6.1754743434   -5.3015133127   -2.3066894841
N        4.0988606015   -3.0230418225   -0.5191144301
N        5.1549667048   -3.5501133640   -1.2076384248
S        3.7335169498   -5.9414992216   -1.6449820627
Cl      -0.7924462724   -0.0964532863    3.1244305538
H        1.6456108686   -2.9641953944    0.0283412783
H        3.8493048723    0.3470710155    1.7460441594
H       -0.3272719727   -2.2704042139    1.3032058636
H        1.8513731571    1.0070383127    2.9769876635
H        4.3863589278   -8.1066728714   -2.7543172828
H        7.0384528591   -7.1451447120   -4.5059686091
H        8.0038090340   -7.1309903042   -3.0105646226
H        6.8565489566   -8.4555654605   -3.3124398863
H        6.1480366086   -1.2495353494    0.3623604061
H        5.5929548303   -0.8972125768   -1.2887456268
H        5.0872121607    0.1419128782    0.0315058781
H        6.0386320817   -3.0731085094   -1.3544947749
29   

C        1.8203703882   -2.2238510969    0.9047885438
C        2.8406067568   -0.1130696130    1.4469898071
C        0.6603733643   -1.8349760322    1.5842410540
C        1.6755498949    0.2672578497    2.1244839739
C        4.7058889091   -7.0544240326   -2.5561964036
C        2.9452913146   -1.3747898125    0.8137165683
C        0.5759606154   -0.5869671392    2.1998559490
C        5.9607981097   -6.5557406750   -2.7834288869
C        5.1312087519   -4.8288624924   -1.6816843729
C        4.1542549362   -1.8260670897    0.0859375352
C        7.0302654689   -7.3334967160   -3.4854285970
C        5.3867781581   -0.9620058969   -0.0444295951
N        6.2010619310   -5.2863413288   -2.2747162480
N        4.1309367340   -3.0313394834   -0.4486972851
N        5.1968321373   -3.5612579507   -1.1201769359
S        3.7364695226   -5.9033484814   -1.6782708793
Cl      -0.8727962251   -0.1041836624    3.0467770535
H        1.8260308146   -3.2072416307    0.4459153539
H        3.6422612849    0.6112620142    1.4424174553
H       -0.1856408197   -2.5104386090    1.6345913349
H        1.6204912564    1.2393052729    2.6007019152
H        4.3630574305   -8.0315103012   -2.8713034477
H        7.0575416025   -7.0512002808   -4.5413717560
H        8.0033812856   -7.1182796001   -3.0350166222
H        6.8355603555   -8.4068013862   -3.4065797988
H        6.2346022684   -1.4616514807    0.4332632457
H        5.6224273755   -0.8205925027   -1.1033144601
H        5.2872411258    0.0249216631    0.4016182210
H        6.0899241510   -3.0938052338   -1.2378185168
