21   
Generated by ForceBalance from scan.xyz: Frame 1 of 24
C        0.3976593807   -0.2615686297   -0.3442539701
C       -5.1528694885    0.0486527821    1.5744238943
C       -0.5975723547    0.8262907558    0.0165968111
C       -3.7501913125    0.1866720975    2.1354346586
N       -1.5619569974    3.3397052528    1.3760079251
O       -1.4617063622    1.9065269655    3.6445129352
O       -0.7626559303    0.8163209711    1.4553886979
O       -3.2161451803    1.4659334863    1.6952372259
P       -1.7289009583    1.8773725302    2.1912242709
H        1.3592591185   -0.0776899624    0.1430683572
H        0.0327593742   -1.2435585362   -0.0292858511
H        0.5528942104   -0.2786285025   -1.4282769017
H       -5.7943758322    0.8570163969    1.9368693185
H       -5.1396966166    0.0776410452    0.4806774305
H       -5.5859187506   -0.9060410582    1.8906752410
H       -1.5705162925    0.6452776453   -0.4570177469
H       -0.2445142128    1.8158921008   -0.2874099672
H       -3.0933634901   -0.6119879246    1.7741057448
H       -3.7501547834    0.1683854867    3.2292748025
H       -2.3929526553    3.6317248120    0.8697935291
H       -1.2332636147    4.0785953254    1.9914150422
21   
Generated by ForceBalance from scan.xyz: Frame 2 of 24
C        1.2682702343    1.4541198267    2.2960204467
C       -5.2421508719    1.1598534612    1.4267309111
C       -0.1388051168    0.9824144229    1.9699102626
C       -4.1570818156    1.3987605940    2.4597548803
N       -1.1482165733    3.7686324959    1.6929372798
O       -2.2307148189    3.3994288993    4.1306307551
O       -1.0770287675    1.4473313536    2.9719871671
O       -3.2074339108    2.3464461199    1.8987787083
P       -1.9472115697    2.7938412752    2.8115880673
H        1.3289889452    2.5437397417    2.2357222251
H        1.5532530359    1.1386924192    3.3037863902
H        1.9803531103    1.0260984076    1.5812347938
H       -5.7568781436    2.0941022465    1.1843589549
H       -4.8189175680    0.7456306658    0.5066967779
H       -5.9779577477    0.4506003063    1.8199119198
H       -0.2088359565   -0.1083124775    1.9975693971
H       -0.4490438645    1.3228153758    0.9776772939
H       -3.6254724588    0.4730870321    2.7041510126
H       -4.5656068618    1.8218254291    3.3823118543
H       -1.6860405265    3.9403078707    0.8478517498
H       -0.8497542681    4.6464048023    2.1095340268
21   
Generated by ForceBalance from scan.xyz: Frame 3 of 24
C        1.3012028399    1.5376864372    2.4316910470
C       -5.3516268562    1.2596310229    1.4942098687
C       -0.0284188846    1.0451590985    1.8847351868
C       -4.1887388771    1.4285773260    2.4538269072
N       -1.1636798872    3.7685295234    1.5865360255
O       -2.1295306308    3.3722683023    4.0524286817
O       -1.1159237850    1.3966582849    2.7740168019
O       -3.2659873829    2.3902915512    1.8721480239
P       -1.9375334039    2.7826399634    2.7095713779
H        1.3257119108    2.6303038119    2.4546086287
H        1.4611157953    1.1598566204    3.4455012555
H        2.1198812945    1.1858873557    1.7935123323
H       -5.8656421255    2.2125928404    1.3388046229
H       -5.0051466015    0.8877592258    0.5252572695
H       -6.0691799619    0.5414176419    1.9046137314
H       -0.0542803996   -0.0461331905    1.8276696176
H       -0.2170915781    1.4487812192    0.8858253485
H       -3.6568409971    0.4842788769    2.6098171635
H       -4.5208021066    1.8092745360    3.4244008571
H       -1.6559275612    3.8585734509    0.7020290422
H       -0.9542944016    4.6830085575    1.9770889402
21   
Generated by ForceBalance from scan.xyz: Frame 4 of 24
C        1.3046468455    1.5362092026    2.5831491669
C       -5.4574982508    1.3181121141    1.5972480973
C        0.0880058182    1.0413152414    1.8174723397
C       -4.2074019550    1.3886753641    2.4540603484
N       -1.1718586194    3.7064154785    1.4924067246
O       -2.0365223437    3.2423864380    3.9741655942
O       -1.1336741702    1.2827887397    2.5558369978
O       -3.2994926269    2.3451739837    1.8410237749
P       -1.9169136147    2.6919793542    2.6059692318
H        1.2792606796    2.6243158566    2.6875039244
H        1.3373313412    1.0897547811    3.5809188722
H        2.2194292886    1.2621613674    2.0453477460
H       -5.9427234602    2.2968647168    1.5413981799
H       -5.2147180399    0.9903004778    0.5819794029
H       -6.1649768318    0.6042377888    2.0320729282
H        0.1184054493   -0.0425612722    1.6817272260
H        0.0232181595    1.5151134133    0.8340272494
H       -3.7038673590    0.4180098983    2.5101711024
H       -4.4357032112    1.7266031025    3.4694387782
H       -1.6207931612    3.7396414440    0.5811197178
H       -1.0419568368    4.6417311640    1.8673985916
21   
Generated by ForceBalance from scan.xyz: Frame 5 of 24
C        1.2594665282    1.5115489882    2.7227460807
C       -5.5311253827    1.3527945599    1.7116572495
C        0.1765506666    1.0671206637    1.7516723654
C       -4.2151415232    1.3597457496    2.4667303116
N       -1.1997607679    3.6851042772    1.3960176950
O       -1.9422307653    3.1336025696    3.8902753178
O       -1.1485449593    1.2166056360    2.3180226526
O       -3.3336723757    2.3171153840    1.8173668007
P       -1.9017285896    2.6324568743    2.4980738410
H        1.1892177840    2.5846861033    2.9205891576
H        1.1665377129    0.9776939629    3.6725691060
H        2.2473919485    1.3031233291    2.2966756578
H       -5.9926684449    2.3443070542    1.7321118456
H       -5.3787350276    1.0600960930    0.6684690126
H       -6.2206279321    0.6390552858    2.1747582036
H        0.2579887738    0.0008577536    1.5279982912
H        0.2339497603    1.6285910129    0.8151341012
H       -3.7349882002    0.3759932551    2.4447643225
H       -4.3522010597    1.6630247138    3.5090722993
H       -1.6042850719    3.6668644721    0.4635470450
H       -1.1525832678    4.6339858119    1.7559134492
21   
Generated by ForceBalance from scan.xyz: Frame 6 of 24
C        1.1906966803    1.5072968023    2.8746419887
C       -5.5576146180    1.3998743158    1.8113394482
C        0.2792866240    1.1887736987    1.6986289859
C       -4.1838836940    1.3771771046    2.4549658602
N       -1.2437222953    3.7491890830    1.2360483398
O       -1.8534415059    3.1342766141    3.7430305422
O       -1.1242435534    1.2629351141    2.0590119269
O       -3.3418857160    2.3255419456    1.7417251502
P       -1.8800825092    2.6610379516    2.3400517937
H        1.0601114709    2.5412406187    3.2052200724
H        0.9736007312    0.8485628949    3.7201030279
H        2.2362273616    1.3667384903    2.5779069543
H       -5.9999677696    2.3978066531    1.8819217855
H       -5.4964208967    1.1188344013    0.7557317022
H       -6.2177133416    0.6902321575    2.3212975651
H        0.4169534917    0.1601334053    1.3577072116
H        0.4648926310    1.8668808025    0.8611618108
H       -3.7241808183    0.3860558415    2.3839396333
H       -4.2287239410    1.6724326659    3.5074849958
H       -1.6094991481    3.6761023414    0.2903004696
H       -1.2784856523    4.7066420204    1.5734961941
21   
Generated by ForceBalance from scan.xyz: Frame 7 of 24
C        1.0446652176    1.3287151966    3.0361332304
C       -5.5527159683    1.3595049688    1.9365138439
C        0.3355136435    1.3364622262    1.6894859609
C       -4.1389275625    1.3943182906    2.4859258262
N       -1.3552398498    3.8294487500    1.0222409030
O       -1.7820365152    3.2336643204    3.5646072452
O       -1.1100488990    1.3643922518    1.8394941041
O       -3.3720802275    2.3351864081    1.6830934975
P       -1.8888565443    2.7373341729    2.1726971703
H        0.8310425324    2.2419497388    3.5971644950
H        0.7203874412    0.4737852970    3.6366573026
H        2.1269719700    1.2548198250    2.8800832141
H       -6.0152495864    2.3487431291    1.9999498258
H       -5.5548784660    1.0394670696    0.8903223581
H       -6.1583857947    0.6547805371    2.5160919580
H        0.5340772266    0.4191013841    1.1303545899
H        0.6419040467    2.1913944172    1.0798241238
H       -3.6587821506    0.4126733758    2.4192892125
H       -4.1204954227    1.7276431364    3.5277534380
H       -1.7044497159    3.6817884594    0.0790724373
H       -1.4622057783    4.7961926332    1.3144400491
21   
Generated by ForceBalance from scan.xyz: Frame 8 of 24
C        0.8814719416    1.1288740268    3.1236764738
C       -5.4778198330    1.3160904728    2.0494294417
C        0.3927512905    1.4468932745    1.7184605766
C       -4.0339895620    1.4093429433    2.5060124591
N       -1.4214404799    3.8972006096    0.8232817760
O       -1.6555732348    3.3453339603    3.3915054050
O       -1.0612567740    1.4608846402    1.6535554300
O       -3.3539393203    2.3620597942    1.6407419487
P       -1.8553256141    2.8153971998    2.0219701825
H        0.5617210257    1.9015625127    3.8268692556
H        0.4855254221    0.1653107831    3.4586297136
H        1.9761361517    1.0741983796    3.1293985599
H       -5.9703085418    2.2897081853    2.1270760803
H       -5.5351433549    0.9776929152    1.0106420629
H       -6.0197764946    0.6012669732    2.6776514106
H        0.6940772264    0.6762833005    1.0048410870
H        0.7751107143    2.4098714865    1.3661369378
H       -3.5239491422    0.4442374980    2.4237424063
H       -3.9611529994    1.7616927023    3.5392333721
H       -1.7671526924    3.6891423581   -0.1094244954
H       -1.5792423260    4.8673085662    1.0784517403
21   
Generated by ForceBalance from scan.xyz: Frame 9 of 24
C        0.6884882177    0.9802083633    3.1722380205
C       -5.3768586612    1.2695696496    2.1540781093
C        0.4200975968    1.5143924202    1.7741719660
C       -3.9162955436    1.4298012225    2.5321387161
N       -1.4889610467    3.9820393987    0.6781523537
O       -1.5348317813    3.4552756680    3.2551725238
O       -1.0089596081    1.5703222275    1.4985436008
O       -3.3267387441    2.4067082357    1.6284269098
P       -1.8198318765    2.9023649473    1.9098261831
H        0.2808974917    1.6591190488    3.9247418382
H        0.2332787850   -0.0070679791    3.2989863103
H        1.7689540003    0.8845297697    3.3293965832
H       -5.9075823450    2.2207957347    2.2538149772
H       -5.4741048834    0.9221802423    1.1212760875
H       -5.8520445150    0.5355437137    2.8134229515
H        0.8254631441    0.8525587210    1.0050556471
H        0.8555274093    2.5087151301    1.6343350440
H       -3.3685313179    0.4879429778    2.4262169438
H       -3.8044543392    1.7912487089    3.5588282778
H       -1.8330764201    3.7261511083   -0.2430691363
H       -1.7068903702    4.9460801293    0.9112540813
21   
Generated by ForceBalance from scan.xyz: Frame 10 of 24
C        0.4728563162    0.8564098437    3.1996135638
C       -5.2308064706    1.2353901389    2.2330612586
C        0.4420252153    1.5573202322    1.8511457455
C       -3.7729980368    1.4924444126    2.5658181386
N       -1.5350990633    4.0939978052    0.5589266218
O       -1.4158143018    3.5962244597    3.1402908694
O       -0.9251683937    1.7143404468    1.3747354660
O       -3.2681422234    2.4808075363    1.6250660115
P       -1.7611722091    3.0205767390    1.8186861712
H       -0.0089296079    1.4746172120    3.9606957111
H       -0.0395993733   -0.1092087340    3.1421897417
H        1.5117826516    0.6774645453    3.4993148152
H       -5.8150941754    2.1556469921    2.3234524373
H       -5.3340003513    0.8552359862    1.2124924861
H       -5.6434657809    0.4925840982    2.9239126167
H        0.9383230460    0.9661006738    1.0779790423
H        0.9258541700    2.5370258456    1.9021441417
H       -3.1730974939    0.5818737474    2.4660344809
H       -3.6552278010    1.8843981434    3.5806364134
H       -1.8805409034    3.7940591544   -0.3484276631
H       -1.8199430089    5.0440371845    0.7776005450
21   
Generated by ForceBalance from scan.xyz: Frame 11 of 24
C        0.2386962557    0.7717175149    3.1715108149
C       -5.0808599978    1.2479660673    2.2902464112
C        0.4445654448    1.6090550787    1.9196577520
C       -3.6259048599    1.5769689975    2.5686528392
N       -1.5732922228    4.2103329077    0.4229897820
O       -1.3218833575    3.7729639843    3.0129999086
O       -0.8226401118    1.8868102592    1.2595148368
O       -3.1990721575    2.5721892074    1.5995738832
P       -1.6995448854    3.1615786282    1.7166328680
H       -0.3267683797    1.3344477922    3.9185351794
H       -0.2966654846   -0.1531481578    2.9341178851
H        1.2107371636    0.5056100071    3.6020088459
H       -5.7040315226    2.1414058072    2.3893395300
H       -5.2007478888    0.8494216328    1.2785610706
H       -5.4347235840    0.4966289685    3.0041044432
H        1.0341752890    1.0745882349    1.1712852032
H        0.9463807712    2.5512327981    2.1550124454
H       -2.9899913826    0.6917474400    2.4612161814
H       -3.4925117791    1.9875123988    3.5743485947
H       -1.9155356430    3.8568916205   -0.4663190858
H       -1.9316944967    5.1401029981    0.6202513621
21   
Generated by ForceBalance from scan.xyz: Frame 12 of 24
C        0.0647389797    0.6852947033    3.0968884810
C       -4.9924130312    1.2377832043    2.3849346607
C        0.4541493483    1.6631907748    2.0002311945
C       -3.5183477772    1.5505813641    2.5655056278
N       -1.6558511904    4.2360905981    0.3155192885
O       -1.3449542206    3.8650897947    2.9206392918
O       -0.6847919534    2.0273251098    1.1715893318
O       -3.1374867076    2.5133553774    1.5480521150
P       -1.6799153451    3.2108135315    1.6335017913
H       -0.6110069574    1.1573469033    3.8149925181
H       -0.4187838091   -0.2013554945    2.6749653770
H        0.9629034499    0.3633625727    3.6359651920
H       -5.5957195796    2.1416764336    2.5085003213
H       -5.1813053331    0.8256799162    1.3893272255
H       -5.3105326108    0.5023531290    3.1314822261
H        1.1664080645    1.2156562872    1.3034801320
H        0.8939832998    2.5699256475    2.4227300854
H       -2.9042911622    0.6524350024    2.4402311065
H       -3.3190160884    1.9808775459    3.5519075529
H       -1.9226348594    3.8153560363   -0.5704444450
H       -2.1518037383    5.1079201781    0.4767598538
21   
Generated by ForceBalance from scan.xyz: Frame 13 of 24
C        0.4818276232   -0.9741476780    1.4046024011
C       -4.9137545215    2.0587450101    3.6863616441
C       -0.5072031950   -0.2668889965    2.3122923113
C       -4.3487114708    2.6677928696    2.4125487993
N       -1.3460750651    3.4950351068    1.6252239708
O       -1.5649480646    2.0885286474    3.8431082531
O       -1.0460988428    0.8702371223    1.5808653542
O       -3.2896681331    1.8349060284    1.8572763140
P       -1.7838415803    2.0620346759    2.3769386745
H       -0.0060887476   -1.3117611699    0.4856350147
H        1.3065393677   -0.3072268045    1.1358496697
H        0.8954411666   -1.8481276427    1.9190953744
H       -5.2810651832    1.0457374308    3.4958725982
H       -4.1476700904    2.0168382875    4.4640163291
H       -5.7507846810    2.6685238906    4.0455382309
H       -0.0358991401    0.0902959269    3.2311868460
H       -1.3391067724   -0.9243621237    2.5849094424
H       -3.9633288430    3.6776585240    2.5848769986
H       -5.1025482536    2.7190356291    1.6233490438
H       -0.4847376628    3.8973718671    1.9838392913
H       -1.3539134624    3.4743566900    0.6088117990
21   
Generated by ForceBalance from scan.xyz: Frame 14 of 24
C        0.4248998411   -1.0138415834    1.4148501624
C       -4.8018411955    1.9506436106    3.6508785059
C       -0.5723637541   -0.2354469131    2.2523899512
C       -4.2860998726    2.6021771812    2.3773549463
N       -1.3139080251    3.5865424997    1.5138548769
O       -1.4801901073    2.2384369190    3.7776662829
O       -0.8786679491    0.9987835344    1.5442546774
O       -3.1819868526    1.8405798747    1.8073561900
P       -1.6865800384    2.1629454754    2.3115336303
H        0.0094855295   -1.2445501187    0.4295417870
H        1.3461128854   -0.4395378611    1.2789508359
H        0.6734189924   -1.9553417605    1.9160932898
H       -5.1071373612    0.9179668609    3.4559635717
H       -4.0280771097    1.9520380238    4.4220243985
H       -5.6723331959    2.5042698422    4.0211993486
H       -0.1704489648    0.0155086327    3.2373591454
H       -1.5028264843   -0.7971991549    2.3878017734
H       -3.9620411966    3.6324083764    2.5549805566
H       -5.0480155001    2.6131630756    1.5943258867
H       -0.4720753091    4.0379234427    1.8600752793
H       -1.3201709513    3.5344872789    0.4986087995
21   
Generated by ForceBalance from scan.xyz: Frame 15 of 24
C        0.3554111908   -1.0247509642    1.4861058352
C       -4.7103540013    1.8529752692    3.6753651608
C       -0.6960811615   -0.2098498437    2.2155256716
C       -4.2493780209    2.5383531802    2.3986532728
N       -1.2983903224    3.6452567199    1.4271689585
O       -1.4337801573    2.4130427543    3.7548338776
O       -0.7702045079    1.0958796715    1.5759914330
O       -3.1115545580    1.8448617845    1.8106398286
P       -1.6288589246    2.2550798955    2.2939251809
H        0.0926519129   -1.1423282885    0.4307164488
H        1.3329977044   -0.5380968393    1.5502294297
H        0.4321789670   -2.0195089962    1.9377058257
H       -4.9586773677    0.8051994380    3.4793344781
H       -3.9278930343    1.8970544168    4.4363174904
H       -5.6065336714    2.3537579067    4.0593258053
H       -0.4397940781   -0.0687203381    3.2692574957
H       -1.6826388921   -0.6810407870    2.1518137980
H       -3.9835843362    3.5847054829    2.5788849316
H       -5.0211570844    2.5101007906    1.6256823545
H       -0.4940431133    4.1609146552    1.7716754836
H       -1.2767462369    3.5413025230    0.4164067936
21   
Generated by ForceBalance from scan.xyz: Frame 16 of 24
C        0.3200363381   -0.9969106288    1.4718902994
C       -4.6283272270    1.8416169188    3.7008123249
C       -0.7571854890   -0.1653060364    2.1426325876
C       -4.2076821913    2.4823005352    2.3876204721
N       -1.2978142973    3.6937504790    1.3493889937
O       -1.3926660730    2.6021281265    3.7371298641
O       -0.6557199004    1.1928518806    1.6291666887
O       -3.0324509470    1.8239113073    1.8337419871
P       -1.5740195766    2.3401694457    2.2896486211
H        0.1857673266   -1.0017743105    0.3861540197
H        1.3128069030   -0.5979651045    1.6990222385
H        0.2693723024   -2.0297692090    1.8324182456
H       -4.8171398137    0.7724152295    3.5623346046
H       -3.8489762862    1.9708145732    4.4552245613
H       -5.5511445402    2.3107826223    4.0608038655
H       -0.6247171768   -0.1400710511    3.2287585427
H       -1.7583519233   -0.5447299195    1.9161251356
H       -4.0005124068    3.5499069145    2.5102878230
H       -4.9764011247    2.3692275072    1.6194332663
H       -0.5579983131    4.2917088842    1.7046899094
H       -1.2107405980    3.5329818020    0.3499087079
21   
Generated by ForceBalance from scan.xyz: Frame 17 of 24
C        0.3378649727   -0.9655843982    1.4730858002
C       -4.5905232349    1.8632144314    3.7485713853
C       -0.8261642189   -0.1629434410    2.0233700303
C       -4.1946784761    2.4289690505    2.3939243248
N       -1.3238194627    3.6913408927    1.2988774880
O       -1.3842002253    2.7336323575    3.7311830312
O       -0.5949545002    1.2356574685    1.6956984301
O       -2.9957741495    1.7797925296    1.8812857360
P       -1.5575068411    2.3754944870    2.3036677581
H        0.4116618804   -0.8461888270    0.3880339051
H        1.2792476619   -0.6398425795    1.9245133055
H        0.1936617848   -2.0280986237    1.6959625159
H       -4.7421280532    0.7812302018    3.6828571853
H       -3.8151941557    2.0698539117    4.4897278701
H       -5.5287244061    2.3231943048    4.0794968314
H       -0.8978319301   -0.2652897548    3.1112591609
H       -1.7770027243   -0.4673094564    1.5776471431
H       -4.0269040143    3.5092788318    2.4431914497
H       -4.9587195537    2.2359448393    1.6371316492
H       -0.6533228608    4.3626108339    1.6599109940
H       -1.1703750822    3.4867689228    0.3158785521
21   
Generated by ForceBalance from scan.xyz: Frame 18 of 24
C        0.3606603462   -0.9609751183    1.4901471229
C       -4.5845769999    1.9280339359    3.8117207490
C       -0.8589564180   -0.1810042414    1.9445336695
C       -4.1853979128    2.3750777971    2.4143085986
N       -1.3502086360    3.6426426173    1.2823528143
O       -1.3878528537    2.8385457830    3.7592940618
O       -0.5471425115    1.2342040098    1.8242690574
O       -2.9655329434    1.7108210123    1.9761212395
P       -1.5474797202    2.3770256024    2.3604588380
H        0.6094371750   -0.7206998779    0.4521142976
H        1.2250695099   -0.7278287705    2.1181437789
H        0.1591114375   -2.0353315578    1.5584734411
H       -4.7125641249    0.8415550621    3.8449675217
H       -3.8222690247    2.2185723129    4.5380697977
H       -5.5359944884    2.3959380973    4.0894864125
H       -1.1052461890   -0.4060841749    2.9873891282
H       -1.7341283063   -0.3959982677    1.3263214856
H       -4.0427870926    3.4589269735    2.3635160417
H       -4.9353840598    2.0943779371    1.6710145139
H       -0.7490171657    4.3808115910    1.6343639847
H       -1.1285444024    3.3915660275    0.3236903318
21   
Generated by ForceBalance from scan.xyz: Frame 19 of 24
C        0.3530771975   -0.9676946978    1.4738713000
C       -4.6274966308    1.9768018881    3.8558450831
C       -0.9064769042   -0.2077360938    1.8459247477
C       -4.2208319487    2.3080333890    2.4287757898
N       -1.4219463255    3.5652649805    1.2649590627
O       -1.4298239771    2.8952262437    3.7760811967
O       -0.5541281718    1.1984079216    1.9489182820
O       -2.9845404362    1.6303893627    2.0606018763
P       -1.5829413368    2.3490947249    2.4079780488
H        0.7505011897   -0.6158966588    0.5171166064
H        1.1232668144   -0.8369041413    2.2390899816
H        0.1274451101   -2.0357332032    1.3843101142
H       -4.7403667193    0.8955266869    3.9817336666
H       -3.8771789491    2.3398791444    4.5616641227
H       -5.5883417462    2.4527359348    4.0830484398
H       -1.3054464690   -0.5480541724    2.8064613529
H       -1.6878268482   -0.3189331787    1.0897973534
H       -4.0951468495    3.3854367556    2.2840283328
H       -4.9573590079    1.9499320951    1.7056174455
H       -0.8574494013    4.3448089333    1.5875901673
H       -1.1715614653    3.2756734811    0.3244654491
21   
Generated by ForceBalance from scan.xyz: Frame 20 of 24
C        0.3848970815   -0.9498646133    1.5080176789
C       -4.6286299321    2.0474619034    3.9251578243
C       -0.8996774349   -0.1834576912    1.7631113042
C       -4.2149078704    2.2812155453    2.4808376941
N       -1.4580298732    3.5160265000    1.2768673655
O       -1.4159809449    2.9609778989    3.8146880455
O       -0.5348662772    1.1830097123    2.0921935156
O       -2.9691238432    1.5923506330    2.1705399697
P       -1.5769267268    2.3474342309    2.4774751976
H        0.9422465918   -0.5099587731    0.6756628828
H        1.0225691303   -0.9392703733    2.3963055102
H        0.1506739537   -1.9902902077    1.2583238287
H       -4.7313230897    0.9767255743    4.1266910164
H       -3.8870964669    2.4666924754    4.6088621337
H       -5.5957237389    2.5282740729    4.1118453261
H       -1.4618824829   -0.6129220913    2.5969519076
H       -1.5482425235   -0.1770886438    0.8821236178
H       -4.0987110683    3.3467584043    2.2603296594
H       -4.9426246458    1.8648765657    1.7802189722
H       -0.8961698063    4.3149544762    1.5540898024
H       -1.2176539145    3.1895080929    0.3456378896
21   
Generated by ForceBalance from scan.xyz: Frame 21 of 24
C        0.4153215416   -0.9480821705    1.5213740641
C       -4.6234049548    2.1123057977    3.9625244728
C       -0.8671538619   -0.1452612932    1.6376748970
C       -4.2123776529    2.2488215149    2.5049770555
N       -1.5001943896    3.4495341029    1.2527646761
O       -1.3915037146    2.9965073612    3.8123505014
O       -0.5225147992    1.1520226841    2.1879282973
O       -2.9605976482    1.5506551314    2.2418813479
P       -1.5726043827    2.3291887689    2.5052321717
H        1.1281241882   -0.4509577231    0.8569067621
H        0.8825736510   -1.0683459413    2.5026975197
H        0.1942608608   -1.9410453083    1.1153562109
H       -4.7177285855    1.0574654166    4.2379906029
H       -3.8847826087    2.5826218156    4.6155056334
H       -5.5938222948    2.5980383450    4.1163072672
H       -1.5874928728   -0.6309807592    2.3004304490
H       -1.3430056427   -0.0089243108    0.6602747014
H       -4.1046277117    3.2971192786    2.2103042292
H       -4.9368079534    1.7779020342    1.8362022421
H       -0.9002553120    4.2414326082    1.4635910313
H       -1.3240387748    3.0830874760    0.3215764390
21   
Generated by ForceBalance from scan.xyz: Frame 22 of 24
C        0.4227644531   -0.9515607843    1.5652080916
C       -4.6227335615    2.1503687902    4.0281949680
C       -0.8184740230   -0.0786633623    1.5387320910
C       -4.2242210363    2.2230188550    2.5626562531
N       -1.5389163874    3.3723211830    1.2419772707
O       -1.3886805659    3.0271958172    3.8233914673
O       -0.5299150908    1.1187030279    2.3016712527
O       -2.9708215648    1.5191979506    2.3209827206
P       -1.5833171053    2.3101796410    2.5462325252
H        1.2744130373   -0.4323933525    1.1161800813
H        0.6817905779   -1.2154422404    2.5943229615
H        0.2394991707   -1.8736508231    1.0033006580
H       -4.7081699608    1.1086290324    4.3519144363
H       -3.8819038594    2.6539168009    4.6532628992
H       -5.5948200051    2.6371682430    4.1674744338
H       -1.6783433243   -0.5832132479    1.9850917157
H       -1.0817916409    0.1995358347    0.5102048457
H       -4.1237366318    3.2574913774    2.2204011804
H       -4.9516041392    1.7186510803    1.9220500659
H       -0.8891209729    4.1417672427    1.3743816213
H       -1.4527791250    2.9627431381    0.3158553212
21   
Generated by ForceBalance from scan.xyz: Frame 23 of 24
C        0.6870572702   -0.1112393661   -0.3637161370
C       -5.1716093076    0.2641416576    1.6569029085
C       -0.6067725413    0.5566963260    0.0637416134
C       -3.7638994892    0.2800612862    2.2222968988
N       -1.4445886081    3.2800565801    1.4140236673
O       -1.4999306055    1.7027254826    3.6689425131
O       -0.4945061908    0.8800340301    1.4752025135
O       -3.0390423333    1.3662637550    1.5801165741
P       -1.6063700557    1.7943263335    2.1954265025
H        1.5352502333    0.5661646731   -0.2288281947
H        0.8689593927   -1.0147362841    0.2253083792
H        0.6288327239   -0.3899972206   -1.4212725985
H       -5.6843052011    1.2059744119    1.8731055750
H       -5.1555156539    0.1180622568    0.5727710140
H       -5.7427207908   -0.5535008166    2.1090580638
H       -1.4644749633   -0.1098887212   -0.0718205110
H       -0.7919880103    1.4764603620   -0.4998286637
H       -3.2403464607   -0.6595632018    2.0124688730
H       -3.7585674912    0.4430469397    3.3031210401
H       -2.2436299075    3.8911544025    1.5673417174
H       -0.5901264585    3.7604044603    1.6880629087
21   
Generated by ForceBalance from scan.xyz: Frame 24 of 24
C        0.5793932250   -0.2460689137   -0.3654989449
C       -5.0776660653    0.1972014445    1.6823835483
C       -0.5146736449    0.7395459981    0.0018480237
C       -3.6623588580    0.2797281799    2.2218516175
N       -1.4182392554    3.3338997154    1.3617642794
O       -1.3665262109    1.8280928639    3.6416834998
O       -0.5186154526    0.8775284458    1.4468235607
O       -3.0266600995    1.4468689376    1.6290483224
P       -1.5625225077    1.8641284047    2.1757923054
H        1.5542427451    0.1162458885   -0.0268053022
H        0.3948361685   -1.2212693893    0.0943659277
H        0.6137615830   -0.3740203404   -1.4527010820
H       -5.6469498294    1.0904739485    1.9553703096
H       -5.0751520936    0.1053351425    0.5921746381
H       -5.5833114426   -0.6781851203    2.1031632966
H       -1.4988809988    0.3834234399   -0.3217596983
H       -0.3428758767    1.7237785726   -0.4434074680
H       -3.0802635494   -0.6087665755    1.9530010942
H       -3.6471203649    0.3874409411    3.3098575215
H       -2.3031536150    3.8287515593    1.2863846245
H       -0.7185536206    3.9363076048    1.7887898033
