26   

C        0.3833039582   -0.4961923564   -0.3399102606
C        7.4795932255   -0.2461204428    4.7883798849
C        1.5796905357    0.1762211956   -0.0742130103
C       -0.1360162028   -1.3877800615    0.6027436271
C        6.9671840835   -0.6875819470    3.5650173943
C        6.6066199416    0.1751775545    5.7951813890
C        2.2544509884   -0.0445452108    1.1325676574
C        0.5399917356   -1.6030472900    1.8093930946
C        5.5836938345   -0.7062926017    3.3506196330
C        5.2240148352    0.1516905775    5.5779179921
C        1.7419217659   -0.9349446795    2.0873292042
C        4.6975707677   -0.2883288725    4.3541982531
C        2.4376097912   -1.1515483669    3.3572829463
C        3.2500796820   -0.3257621338    4.1367681764
H       -0.1412099286   -0.3255154911   -1.2732790433
H        8.5505396938   -0.2321588180    4.9566206027
H        1.9841278176    0.8712037782   -0.8012025716
H       -1.0637281383   -1.9110948392    0.4009162473
H        7.6406756344   -1.0184602009    2.7827032365
H        6.9997195745    0.5179704282    6.7455532827
H        3.1791357396    0.4840983683    1.3342569715
H        0.1262924071   -2.2926850753    2.5358898712
H        5.1929644096   -1.0546431947    2.4013225262
H        4.5553878108    0.4757387206    6.3668878089
H        2.3066477898   -2.1434000858    3.7732226760
H        2.6990363484    0.4356825587    4.6757302889
26   

C        0.6188707382   -0.5015163780   -0.3404998576
C        7.3975165498   -0.1895055940    4.5746701897
C        1.7690881527    0.1881655105    0.0528604399
C        0.0251729854   -1.4158945435    0.5336123312
C        6.7884945244   -0.6964067076    3.4233486007
C        6.6082199600    0.2577202023    5.6375129991
C        2.3232882835   -0.0374935659    1.3185694624
C        0.5818237257   -1.6381901832    1.7985294545
C        5.3923793679   -0.7551585094    3.3367903483
C        5.2127107994    0.1966362601    5.5474699380
C        1.7370586981   -0.9534901319    2.2057626523
C        4.5882051539   -0.3088178810    4.3969351591
C        2.3031591079   -1.1803296901    3.5392687423
C        3.1259291432   -0.3847065777    4.3186123963
H        0.1871560329   -0.3260667834   -1.3194027031
H        8.4785600502   -0.1456019965    4.6441480410
H        2.2308844291    0.9011337534   -0.6205782114
H       -0.8682576530   -1.9515216684    0.2334188799
H        7.3969234670   -1.0478706734    2.5978877081
H        7.0764205096    0.6497337394    6.5332503923
H        3.2107831247    0.5088610915    1.6166316606
H        0.1097526330   -2.3460899938    2.4697125368
H        4.9305452955   -1.1577492922    2.4425738889
H        4.6110418255    0.5418458837    6.3801077770
H        2.0528612531   -2.1338162596    3.9888981361
H        2.5945401979    0.3047258150    4.9637954466
26   

C        0.8385567443   -0.4905491053   -0.3317120239
C        7.3150127266   -0.1537944210    4.3740006191
C        1.9048635035    0.2505750899    0.1844740164
C        0.2188670575   -1.4590695476    0.4619496517
C        6.6349296070   -0.7647946600    3.3171717140
C        6.5960393707    0.3626715954    5.4548748683
C        2.3487896242    0.0231324209    1.4925575164
C        0.6668151275   -1.6852764416    1.7685993213
C        5.2384111821   -0.8593346418    3.3431982621
C        5.1996893937    0.2683145437    5.4764616947
C        1.7372670033   -0.9493023998    2.3005710355
C        4.5026497956   -0.3418679163    4.4217904282
C        2.1831580841   -1.1832362847    3.6795195389
C        3.0394918692   -0.4517754391    4.4675231481
H        0.4915190119   -0.3129012828   -1.3433456522
H        8.3967250957   -0.0831158690    4.3567207207
H        2.3869849738    1.0051756575   -0.4264517892
H       -0.6110311119   -2.0339100550    0.0669174595
H        7.1885683493   -1.1696255608    2.4777134090
H        7.1196662543    0.8343188057    6.2786384248
H        3.1710614226    0.6117978943    1.8829093131
H        0.1740060718   -2.4363335328    2.3747526213
H        4.7247518105   -1.3440091680    2.5208364168
H        4.6549101667    0.6689948639    6.3232444857
H        1.7952870129   -2.0787861878    4.1502390027
H        2.5496040092    0.1470586567    5.2260995058
26   

C        1.0328928211   -0.4710536025   -0.3081002458
C        7.2298948841   -0.1366153793    4.1972982615
C        2.0003315256    0.3252936824    0.3101970345
C        0.4133869761   -1.4945831607    0.4131417009
C        6.5034134194   -0.8516184820    3.2415811895
C        6.5648308595    0.4529743855    5.2751037366
C        2.3446431161    0.0990452686    1.6481111907
C        0.7635486297   -1.7210736375    1.7492401771
C        5.1148194596   -0.9781928786    3.3662323557
C        5.1757918093    0.3284681617    5.3940013591
C        1.7331473021   -0.9291370042    2.3847261861
C        4.4319337776   -0.3872667625    4.4424104714
C        2.0722477920   -1.1659128237    3.7954234415
C        2.9765767456   -0.5276293742    4.5951040238
H        0.7622566563   -0.2938919834   -1.3428691247
H        8.3058560713   -0.0416883408    4.1041719452
H        2.4831932324    1.1215645362   -0.2446549131
H       -0.3408158595   -2.1122178789   -0.0611053651
H        7.0148008636   -1.3120211453    2.4039803481
H        7.1248093244    1.0050410033    6.0213284143
H        3.0915367900    0.7301771701    2.1160049378
H        0.2718476865   -2.5162613845    2.2971496771
H        4.5661439477   -1.5424022441    2.6207613573
H        4.6740523946    0.7880641379    6.2374043076
H        1.5340856820   -1.9731594950    4.2780455070
H        2.5479039136   -0.0470467415    5.4665796502
26   

C        1.2068014644   -0.4515407861   -0.2812606625
C        7.1495649054   -0.1240912831    4.0397073828
C        2.0738103605    0.3953593663    0.4141216435
C        0.6005087177   -1.5203114549    0.3834832205
C        6.3996644631   -0.9324684639    3.1813947377
C        6.5209115659    0.5277709840    5.1034876729
C        2.3297733300    0.1750331420    1.7726435774
C        0.8642030516   -1.7415918464    1.7401736964
C        5.0245680910   -1.0909580479    3.3902810701
C        5.1445791634    0.3723978675    5.3051302688
C        1.7308564102   -0.8981437000    2.4529201201
C        4.3782722717   -0.4382306034    4.4529855975
C        1.9778081076   -1.1317102303    3.8850696819
C        2.9363932139   -0.6092100946    4.6942701585
H        1.0040166263   -0.2789258039   -1.3321816301
H        8.2154548957   -0.0045332487    3.8818016584
H        2.5476349253    1.2256222398   -0.0969289083
H       -0.0762448698   -2.1773555598   -0.1508087210
H        6.8821697796   -1.4398724507    2.3539007026
H        7.0993901360    1.1524441321    5.7745443931
H        3.0004750709    0.8432297629    2.3006850729
H        0.3852900488   -2.5729419122    2.2439449758
H        4.4562158145   -1.7252626400    2.7196077737
H        4.6702283601    0.8819547685    6.1355719492
H        1.2931176725   -1.8162648550    4.3719506899
H        2.5824949822   -0.2754344499    5.6626805375
26   

C        1.3461345202   -0.4384851547   -0.2495895893
C        7.0740490700   -0.1158236053    3.9182128452
C        2.1328466085    0.4459877006    0.4931657349
C        0.7477972674   -1.5319680067    0.3817049940
C        6.3168453393   -0.9902654777    3.1340655112
C        6.4680626390    0.5706320970    4.9735827854
C        2.3157800594    0.2385409996    1.8654033779
C        0.9398474565   -1.7404158134    1.7524307813
C        4.9575528412   -1.1803352710    3.4092627624
C        5.1067385605    0.3839566017    5.2403705252
C        1.7244372075   -0.8588764594    2.5116147502
C        4.3346705475   -0.4932925287    4.4635820812
C        1.8974717575   -1.0806789140    3.9581562965
C        2.9080072388   -0.6951200967    4.7726542423
H        1.1997523363   -0.2761540594   -1.3114494184
H        8.1279750629    0.0285259625    3.7090978694
H        2.6014755801    1.2946251358    0.0082162753
H        0.1331772716   -2.2182595545   -0.1895914315
H        6.7811045824   -1.5236118644    2.3124938516
H        7.0524827807    1.2466736486    5.5872227896
H        2.9258402741    0.9328402654    2.4319793487
H        0.4697853466   -2.5911988862    2.2315211270
H        4.3807829160   -1.8633339111    2.7960064059
H        4.6478443705    0.9207809406    6.0622913019
H        1.0887644761   -1.6131561806    4.4451971655
H        2.6302705397   -0.5297229219    5.8071852206
26   

C        1.4393340934   -0.4382098345   -0.2215058644
C        7.0156584741   -0.1044844821    3.8408911751
C        2.1859841819    0.4663676211    0.5384853596
C        0.8297833588   -1.5303692490    0.4016971020
C        6.2607337978   -1.0116299470    3.0922282502
C        6.4218182318    0.5809608753    4.9040262997
C        2.3175857608    0.2800530173    1.9195927431
C        0.9711129020   -1.7174946581    1.7816692311
C        4.9160754639   -1.2350760238    3.4107387834
C        5.0745966382    0.3607878544    5.2135928291
C        1.7150086333   -0.8157118196    2.5569122643
C        4.3061037898   -0.5490437492    4.4725014654
C        1.8378587037   -1.0165489958    4.0133602846
C        2.8927851185   -0.7840488366    4.8243794472
H        1.3329700719   -0.2926923160   -1.2905330699
H        8.0583395963    0.0662582622    3.5980542841
H        2.6638527357    1.3135070492    0.0600077011
H        0.2462862924   -2.2322518076   -0.1831123842
H        6.7150985673   -1.5437056392    2.2643441109
H        7.0045973922    1.2823954056    5.4900867729
H        2.8980999339    0.9870443494    2.5013988247
H        0.4942972152   -2.5671568444    2.2560909721
H        4.3382873699   -1.9410553786    2.8250070628
H        4.6230071519    0.8966595825    6.0401904974
H        0.9402795342   -1.3733735642    4.5052071126
H        2.6796396572   -0.8025411902    5.8869772311
26   

C        1.5728312982   -0.9307092843   -0.2463393349
C        6.8838790192    0.3878012452    3.8644227163
C        2.6635596382   -1.5469930944    0.3735516651
C        0.5696850130   -0.3483930981    0.5331938725
C        5.8028874108    1.0080924474    3.2316043145
C        6.6520387247   -0.6118403069    4.8131289962
C        2.7467281236   -1.5836656867    1.7704501680
C        0.6614139126   -0.3801434674    1.9295562464
C        4.4933091364    0.6310422070    3.5516466406
C        5.3410312344   -0.9913749149    5.1237314951
C        1.7490723865   -0.9973971806    2.5639639447
C        4.2476890361   -0.3753097701    4.4980020711
C        1.8227902458   -1.0366415978    4.0384166303
C        2.8700834146   -0.7758785342    4.8486826206
H        1.5050642735   -0.9048686250   -1.3280235129
H        7.8985644108    0.6813800624    3.6204400684
H        3.4464207490   -1.9971058969   -0.2259944424
H       -0.2800677993    0.1272245798    0.0569384918
H        5.9767432540    1.7814961269    2.4923136393
H        7.4871332999   -1.0929829052    5.3093450652
H        3.5959854626   -2.0626064998    2.2446311781
H       -0.1205892696    0.0737022311    2.5269615437
H        3.6595237683    1.1157113327    3.0562974806
H        5.1696333462   -1.7674028988    5.8604819157
H        0.9145576706   -1.3604729028    4.5335066477
H        2.6656304918   -0.8274323838    5.9118888879
26   

C        1.5457716524   -0.9758574031   -0.2497047087
C        6.8859791066    0.4252692023    3.9017864554
C        2.6288981633   -1.5909785093    0.3841681234
C        0.5563232686   -0.3532202758    0.5158392034
C        5.7948196872    1.0376765389    3.2791636704
C        6.6715021199   -0.6040715258    4.8222196206
C        2.7180497161   -1.5865769643    1.7811350761
C        0.6539233111   -0.3438224326    1.9121517599
C        4.4923135373    0.6233878040    3.5813797335
C        5.3677366953   -1.0209306669    5.1150211762
C        1.7339073855   -0.9599924314    2.5614257367
C        4.2634130491   -0.4129854050    4.4998263612
C        1.8115432713   -0.9581208593    4.0346693904
C        2.8948944021   -0.8509440591    4.8343568308
H        1.4732275533   -0.9823248319   -1.3313706144
H        7.8950593103    0.7481132046    3.6719251457
H        3.4011341521   -2.0725822413   -0.2046043345
H       -0.2877056930    0.1215454449    0.0286824366
H        5.9552335473    1.8343436654    2.5618544044
H        7.5146022308   -1.0791492846    5.3106795217
H        3.5614012543   -2.0667265038    2.2644009222
H       -0.1185625783    0.1411035989    2.4973604834
H        3.6518188375    1.1045114311    3.0941231832
H        5.2113912714   -1.8196287463    5.8305582686
H        0.8649678944   -1.0930374688    4.5452369838
H        2.7310805567   -1.0910822501    5.8785720733
26   

C        1.4641812265   -1.0142698384   -0.2837707981
C        6.9374415099    0.4534228809    3.9785084303
C        2.5749908753   -1.5904559673    0.3383258906
C        0.4839482982   -0.3872370282    0.4896777010
C        5.8558822707    1.0394791708    3.3154393479
C        6.7135081984   -0.5803461715    4.8914298527
C        2.7012280687   -1.5430060496    1.7316468053
C        0.6179752189   -0.3348317500    1.8819841071
C        4.5531870443    0.5946426711    3.5696760170
C        5.4101016306   -1.0277476031    5.1367680868
C        1.7261975095   -0.9118627249    2.5206768110
C        4.3141467351   -0.4465830274    4.4808867565
C        1.8400553175   -0.8673681310    3.9892302367
C        2.9466124208   -0.9145482240    4.7680329607
H        1.3628843981   -1.0546224703   -1.3623976128
H        7.9463646991    0.8003555424    3.7860589424
H        3.3397819809   -2.0760717479   -0.2568604514
H       -0.3815793171    0.0573051324    0.0117894644
H        6.0238579583    1.8401588718    2.6043338376
H        7.5490439864   -1.0350114934    5.4113261701
H        3.5658350612   -1.9958572544    2.2034671151
H       -0.1492104254    0.1530260136    2.4716778848
H        3.7216744696    1.0586647577    3.0515011874
H        5.2484558493   -1.8293403528    5.8478504262
H        0.8998579182   -0.8077964828    4.5251671591
H        2.8003200698   -1.3411039368    5.7536277685
26   

C        1.3353404918   -1.0518155199   -0.3281296288
C        7.0146685743    0.4737159324    4.0951118842
C        2.5027543911   -1.5521132221    0.2544157824
C        0.3594132146   -0.4573236803    0.4755401885
C        5.9659892706    1.0139536836    3.3461607724
C        6.7546085541   -0.5381974981    5.0225487502
C        2.6905237778   -1.4610539503    1.6386497804
C        0.5537340063   -0.3618414902    1.8583678253
C        4.6596648585    0.5449744082    3.5284495966
C        5.4482469495   -1.0093998486    5.1971240862
C        1.7200029053   -0.8619255243    2.4585782658
C        4.3839256918   -0.4750470931    4.4540162597
C        1.8966032722   -0.7745877339    3.9171624202
C        3.0129778578   -0.9659107416    4.6681191572
H        1.1866510981   -1.1262386996   -1.3994391448
H        8.0259900240    0.8395933313    3.9583133841
H        3.2636286704   -2.0136138735   -0.3645395542
H       -0.5498495689   -0.0717669112    0.0285960729
H        6.1622405751    1.7986978593    2.6245791866
H        7.5643111898   -0.9572550183    5.6090164234
H        3.5986981881   -1.8582493155    2.0775296016
H       -0.2125252559    0.0995674905    2.4701167193
H        3.8551306184    0.9770536673    2.9443322082
H        5.2604216324   -1.7930223369    5.9216558513
H        1.0051594637   -0.5265172611    4.4813071122
H        2.8654530768   -1.5650338949    5.5590501614
26   

C        1.1705970725   -1.1054256939   -0.3562461613
C        7.0866222594    0.4958545922    4.2538875923
C        2.4041527437   -1.5069927236    0.1628707165
C        0.2036480180   -0.5642600147    0.4944815109
C        6.0941626312    0.9789246769    3.3971102150
C        6.7689515287   -0.4793177783    5.2024206577
C        2.6678129824   -1.3694964955    1.5308386899
C        0.4724482554   -0.4237993954    1.8608967547
C        4.7863079041    0.4886998754    3.4916791684
C        5.4613645742   -0.9706815741    5.2909687313
C        1.7067090900   -0.8232035636    2.3977480255
C        4.4529880106   -0.4949113128    4.4377719916
C        1.9637533199   -0.6898890550    3.8390264198
C        3.0798227715   -1.0052612112    4.5598578193
H        0.9636583526   -1.2155393605   -1.4147495359
H        8.0988178007    0.8779841060    4.1845195889
H        3.1574448683   -1.9286008526   -0.4927671505
H       -0.7564068262   -0.2552724534    0.0969556326
H        6.3351576705    1.7364491233    2.6601295055
H        7.5346715657   -0.8540001091    5.8721149601
H        3.6266908334   -1.6926384703    1.9197264101
H       -0.2886499933   -0.0057942406    2.5092009217
H        4.0257524434    0.8788785442    2.8250302894
H        5.2289765466   -1.7243342869    6.0341403248
H        1.1532287635   -0.2702575587    4.4231062101
H        2.9235216989   -1.7514349456    5.3299129034
26   

C        0.9809276898   -1.1725711283   -0.3759346478
C        7.1560023586    0.5224901054    4.4418828055
C        2.2774815721   -1.4660033163    0.0548568433
C        0.0390164490   -0.6919725859    0.5371777808
C        6.2457263605    0.9463783767    3.4700520016
C        6.7594513677   -0.4102853396    5.4034568553
C        2.6295997862   -1.2796630576    1.3969407125
C        0.3952489310   -0.5048364343    1.8777863355
C        4.9412562138    0.4382619293    3.4618460398
C        5.4550614383   -0.9177803844    5.3908538829
C        1.6939252956   -0.7944049628    2.3251050306
C        4.5298448684   -0.5020856776    4.4204565529
C        2.0476176613   -0.6125260341    3.7387183635
C        3.1587492670   -1.0277267593    4.4319140340
H        0.7059693807   -1.3198160118   -1.4142574289
H        8.1654359251    0.9178964732    4.4514885569
H        3.0109722727   -1.8419017133   -0.6492634918
H       -0.9690134400   -0.4663926905    0.2082197085
H        6.5478455004    1.6721389885    2.7236685732
H        7.4611633540   -0.7393188848    6.1614546232
H        3.6363703753   -1.5200484000    1.7189043434
H       -0.3465990124   -0.1358767514    2.5762833467
H        4.2430963092    0.7828718875    2.7076229820
H        5.1594533014   -1.6372250304    6.1454304862
H        1.3350792986   -0.0493301457    4.3295907120
H        2.9935739503   -1.8874532030    5.0703640389
26   

C        0.7808890543   -1.2475594359   -0.3984113889
C        7.2293395753    0.5545269110    4.6409303011
C        2.1272590555   -1.4426592921   -0.0780679444
C       -0.1112048481   -0.8160324243    0.5867784289
C        6.4239239267    0.9324908189    3.5630407077
C        6.7388229488   -0.3441563434    5.5919333732
C        2.5789635531   -1.2060651037    1.2257947610
C        0.3441001446   -0.5813306466    1.8894328696
C        5.1304493129    0.4115668949    3.4379843780
C        5.4447751438   -0.8621654709    5.4638471966
C        1.6934085966   -0.7720619192    2.2244121727
C        4.6259597156   -0.4921036902    4.3859685320
C        2.1578759491   -0.5400479043    3.5956709670
C        3.2656144878   -1.0267294776    4.2692673555
H        0.4291232883   -1.4326484919   -1.4070803743
H        8.2303324347    0.9589091847    4.7404267195
H        2.8221148829   -1.7808627276   -0.8382608110
H       -1.1567674544   -0.6653669381    0.3432026119
H        6.7989972845    1.6322011766    2.8249183265
H        7.3593727890   -0.6384925658    6.4306914308
H        3.6235957783   -1.3683551752    1.4653951460
H       -0.3580176540   -0.2515939552    2.6462447669
H        4.5112919841    0.7176828578    2.6025560993
H        5.0734638978   -1.5545939081    6.2102588794
H        1.5455427418    0.1363451881    4.1800456731
H        3.0960898616   -1.9672396529    4.7798116487
26   

C        0.5719528625   -1.3506192370   -0.4057441423
C        7.2868507919    0.6066136983    4.8608833109
C        1.9481344696   -1.4925096334   -0.2056151671
C       -0.2412873928   -0.9173413519    0.6450338564
C        6.5921075195    0.9787325367    3.7063600059
C        6.7095093041   -0.2965038403    5.7576990572
C        2.5082547086   -1.2004375631    1.0439070942
C        0.3222669657   -0.6296483080    1.8936289997
C        5.3224190756    0.4469069114    3.4506274261
C        5.4385043265   -0.8232346892    5.4999319094
C        1.7020788707   -0.7673012048    2.1067256792
C        4.7316146768   -0.4582310334    4.3443728015
C        2.2851939880   -0.4799935910    3.4189424652
C        3.3957663806   -0.9998907843    4.0864675477
H        0.1363200661   -1.5775616064   -1.3722560680
H        8.2695673440    1.0184085643    5.0611726152
H        2.5819894805   -1.8315934411   -1.0169948127
H       -1.3090751638   -0.8062477956    0.4942749410
H        7.0348606707    1.6815720397    3.0098888641
H        7.2446624671   -0.5875528052    6.6544390448
H        3.5755386391   -1.3175051393    1.1935359117
H       -0.3177576344   -0.2991152380    2.7033552186
H        4.7871516793    0.7437177907    2.5558744389
H        4.9975322862   -1.5190061607    6.2041959000
H        1.7641116093    0.2862178394    3.9804694104
H        3.2349701749   -1.9964984098    4.4799612684
