67

C      2.04881    1.42792    1.44081
C      2.65114    2.47568    1.29237
C     -3.19455   -6.62395    4.02867
C     -2.72010   -7.84093    3.52928
C      0.27982   -0.14543    0.73917
C     -2.44329   -5.46214    3.83074
C     -1.51793   -7.88089    2.81552
C     -0.41454   -1.33309    0.88769
C      1.68767   -0.68808    2.64020
C      1.34643    0.20013    1.61348
C      0.98942   -1.89429    2.78966
C     -1.22546   -5.50868    3.14070
C     -0.75838   -6.72178    2.59793
C     -0.07082   -2.23245    1.91658
C      1.34692   -2.81435    3.86663
C     -0.44528   -4.24196    2.97323
C     -0.27451   -3.99184    8.48308
C      3.67186    4.18855   -0.31898
C      2.62594    4.90870    0.48285
C      0.63622   -4.00166    7.25202
C     -0.56003   -5.40485    8.98276
C     -0.23464   -6.30252    6.67660
C      3.35470    3.71521    1.09992
C      0.04515   -4.89296    6.15282
C      0.49665   -6.76126    1.75850
C     -0.50042   -8.58979    8.62705
C     -2.68288   -8.17998    7.38215
C      0.94316   -5.00024    4.90028
C     -1.65357   -7.62578    8.36423
N     -0.78880   -3.41353    2.04397
N      0.60434   -4.01734    3.86938
N     -1.15657   -6.25275    7.87532
O      2.20282   -2.61316    4.72907
H     -4.15411   -6.57479    4.53702
H     -3.29930   -8.75086    3.66366
H      0.01433    0.54448   -0.05624
H     -2.81582   -4.50259    4.18157
H     -1.17475   -8.82399    2.39737
H     -1.23024   -1.59750    0.22175
H      2.49499   -0.45712    3.32685
H      0.18425   -3.43374    9.30465
H     -1.22168   -3.48521    8.25561
H      3.34469    3.54983   -1.13247
H      4.63457    4.66745   -0.46809
H      2.86369    5.88719    0.88841
H      1.58471    4.76181    0.21610
H      0.78563   -2.99000    6.87020
H      1.63074   -4.37459    7.52674
H      0.35476   -5.90686    9.30269
H     -1.27263   -5.41336    9.81030
H     -0.72185   -6.91119    5.91373
H      0.68291   -6.79629    7.00273
H      4.09719    3.94543    1.85942
H     -0.91471   -4.46978    5.83458
H      0.35798   -6.17625    0.84338
H      1.36038   -6.33098    2.27691
H      0.75122   -7.78429    1.47304
H     -0.02298   -8.91801    7.70064
H      0.25906   -8.17280    9.29298
H     -0.90641   -9.47824    9.11727
H     -2.23997   -8.45154    6.42153
H     -3.49733   -7.47091    7.19988
H     -3.12470   -9.08190    7.81339
H      0.86731   -5.99591    4.46463
H      1.98444   -4.82706    5.17307
H     -2.15331   -7.39338    9.30895
H     -1.99742   -5.75822    7.55683
