53

C     -2.43353    2.12713   -0.00468
C     -3.60899    1.44041    0.30034
C      4.43482   -3.11280   -3.62091
C      3.79825   -5.02149   -2.24794
C      5.74992   -3.57191   -3.65457
C      5.11641   -5.48461   -2.27930
C     -2.40531   -0.69723    0.44614
C     -1.21227   -0.01466    0.14500
C      0.15686   -0.42816   -0.00383
C     -1.24600    1.39256   -0.08384
C     -3.56679    0.05378    0.51561
C      3.47355   -3.83989   -2.91331
C      6.07785   -4.75414   -2.98008
C      0.88900    0.70177   -0.30613
C      1.14871    5.30411    0.66405
C      0.76623   -1.79812    0.10217
C      2.36206    0.73540   -0.57784
C      2.99304   -0.61715   -0.19166
C      2.12589   -1.81199   -0.62069
C      1.68519    7.30033    1.81329
C      0.68228    3.87316    0.82295
C      0.46619    3.18852   -0.53217
N      0.04767    1.80695   -0.38061
N      1.98005   -1.77830   -2.09609
O      1.42182    5.83485   -0.39683
O      1.34914   -2.89850   -4.24261
O      1.01058   -4.21432   -2.08449
O      1.23449    5.92784    1.85964
F     -4.73950   -0.57753    0.81056
S      1.77844   -3.25314   -2.88760
Cl     7.73171   -5.32856   -3.01869
H     -2.45790    3.19938   -0.17736
H     -4.56072    1.95693    0.37315
H      4.15559   -2.20051   -4.13838
H      3.02623   -5.56936   -1.71720
H      6.51381   -3.02510   -4.19779
H      5.39247   -6.40152   -1.76877
H     -2.43463   -1.76850    0.62059
H      0.91953   -2.07832    1.15315
H      0.11781   -2.56395   -0.33348
H      2.54878    0.94472   -1.63992
H      2.85548    1.54008   -0.01953
H      3.98516   -0.70536   -0.64321
H      3.11508   -0.66434    0.89635
H      2.65933   -2.73409   -0.37451
H      1.69353    7.63704    2.84945
H      0.99924    7.90486    1.21578
H      2.68629    7.35703    1.38000
H     -0.23530    3.86019    1.41924
H      1.42996    3.33019    1.41192
H     -0.28715    3.72711   -1.11226
H      1.38423    3.22149   -1.12048
H      1.23859   -1.15045   -2.41418
