66

C     -8.19542    3.51026   -5.39126
C     -9.13828    4.20535   -5.72211
C      0.36692   -0.58401   -2.35537
C      0.25727   -1.92979   -1.98582
C     -6.60457    1.68900   -5.89858
C     -0.79012    0.14677   -2.61753
C     -1.00079   -2.52268   -1.89453
C     -5.53353    0.88626   -5.55087
C     -6.46444    2.85061   -3.77263
C     -7.08948    2.68990   -5.01298
C     -5.37821    2.03816   -3.41751
C     -2.05757   -0.44833   -2.51366
C     -2.17822   -1.80228   -2.15617
C     -4.89748    1.04704   -4.30064
C     -4.74536    2.19606   -2.10571
C     -3.25538    0.39369   -2.82786
C     -5.28012   -0.41683    2.16036
C    -11.23782    5.49501   -5.00823
C    -10.28926    6.49529   -5.61131
C     -4.80311    0.71209    1.24081
C     -4.11430   -1.00016    2.96318
C     -2.52401   -0.35927    1.26719
C    -10.25258    5.04374   -6.08399
C     -3.62554    0.23398    0.38089
C     -3.51053   -2.50231   -2.01794
C     -1.05937   -1.50760    3.64689
C     -1.26485   -3.14406    1.72276
C     -3.05626    1.34065   -0.52743
C     -2.03038   -2.28757    2.73901
N     -3.82179    0.23595   -3.98567
N     -3.66279    1.32135   -1.87489
N     -3.05316   -1.46375    2.06647
O     -5.10736    3.00160   -1.24838
H      1.34185   -0.11227   -2.44300
H      1.14918   -2.51421   -1.77484
H     -7.09143    1.56403   -6.86145
H     -0.71802    1.19157   -2.91073
H     -1.08103   -3.56944   -1.61037
H     -5.15651    0.12243   -6.22439
H     -6.80905    3.60022   -3.06814
H     -6.05148   -0.05007    2.84742
H     -5.72891   -1.21782    1.56035
H    -11.04570    5.15428   -3.99631
H    -12.28605    5.53888   -5.28844
H    -10.68262    7.22965   -6.30787
H     -9.45277    6.83378   -5.00907
H     -5.61737    1.07815    0.60853
H     -4.47427    1.56724    1.84740
H     -3.74985   -0.23308    3.67448
H     -4.45974   -1.85245    3.55836
H     -1.71807   -0.73231    0.62960
H     -2.09794    0.44584    1.89822
H    -10.67474    4.85139   -7.06715
H     -3.98267   -0.58010   -0.25507
H     -3.71028   -2.73891   -0.96646
H     -4.33675   -1.90082   -2.39906
H     -3.50540   -3.44619   -2.57269
H     -0.39755   -0.85986    3.06222
H     -1.59459   -0.88310    4.36936
H     -0.42706   -2.20175    4.21104
H     -0.62106   -2.53971    1.07666
H     -1.96582   -3.69235    1.08630
H     -0.62480   -3.86608    2.24149
H     -1.97886    1.22771   -0.63944
H     -3.25458    2.32902   -0.11410
H     -2.59700   -2.97720    3.37654
