24   

C       -2.3375651222   -2.2523546022    1.5195067360
C       -4.1225642680    1.8565936560    2.3373931051
C       -4.6493216895   -0.4690163191    2.6350744132
C       -5.3713955647    2.2074722105    2.8627839689
C       -5.8989915305   -0.1117942639    3.1557146479
C       -3.7279343289    0.5122917136    2.2044376254
C       -6.2731975092    1.2265258847    3.2742416417
C       -2.3854025059    0.2450422511    1.6255230824
C       -0.3696257212   -1.0527428876    0.8011800953
C       -1.7355851253   -0.9573049848    1.3446762704
C        1.6363223518    1.8703816956    1.1367488954
N       -2.7836969887   -3.3218646698    1.6387177031
N        0.5973867405   -0.2022592971    0.7263207960
O        0.4447172798    1.0955585715    1.2686280146
Cl      -7.8339610535    1.6632981801    3.9240794744
H       -3.4529834572    2.6513312867    2.0287778279
H       -4.4523645183   -1.5282341798    2.5915763632
H       -5.6477347198    3.2514738810    2.9526807106
H       -6.5889756929   -0.8854340834    3.4727272816
H       -1.8615145418    1.1487445252    1.3522695324
H       -0.0904485660   -2.0315510006    0.4260314857
H        1.4547631878    2.8888142490    1.4919842100
H        1.9472204516    1.9128799434    0.0883199183
H        2.4407160314    1.4268081596    1.7311824263
24   

C       -2.2844868117   -2.2454691416    1.5651327103
C       -4.1842386432    1.8543701282    2.2001373764
C       -4.5959473345   -0.4599733608    2.7002442690
C       -5.4093006619    2.1987962928    2.7828490708
C       -5.8215512408   -0.1096025488    3.2793549069
C       -3.7459676708    0.5189042819    2.1383967697
C       -6.2411638530    1.2198004653    3.3259368020
C       -2.4366244859    0.2540572884    1.4895798423
C       -0.4373548208   -1.0072448735    0.6072751960
C       -1.7708317108   -0.9438636456    1.2377005839
C        1.6340601541    1.7786668619    1.3591138242
N       -2.6651611931   -3.3196990273    1.8062904061
N        0.5489456292   -0.1778049219    0.6231290584
O        0.4153967036    1.0355163310    1.3411946139
Cl      -7.7719343402    1.6481563987    4.0486578244
H       -3.5687357588    2.6461002984    1.7884489180
H       -4.3573815802   -1.5115453451    2.7184212197
H       -5.7218779737    3.2359336902    2.8147671012
H       -6.4566148366   -0.8813722013    3.6990819068
H       -1.9477049703    1.1453332229    1.1186207569
H       -0.1916209263   -1.9508568005    0.1323666502
H        1.4731068668    2.7387030734    1.8578720662
H        1.9793731240    1.9654055717    0.3375679805
H        2.4050985141    1.2233919537    1.9016786682
24   

C       -2.2014762762   -2.2074926695    1.6283605722
C       -4.2457053801    1.8509012396    2.1222026418
C       -4.5702536170   -0.4549167301    2.7178930309
C       -5.4504983964    2.1838188777    2.7519024831
C       -5.7743234636   -0.1157713387    3.3467601724
C       -3.7743592169    0.5260802834    2.0858349103
C       -6.2269700554    1.2035356297    3.3698204466
C       -2.4911325774    0.2712461696    1.3851882450
C       -0.5021179045   -0.9380206954    0.4388648750
C       -1.8013247417   -0.9149542721    1.1508452071
C        1.6260146555    1.6757362164    1.5317506832
N       -2.4956470895   -3.2748327892    1.9907081128
N        0.5031068940   -0.1406384770    0.5380601091
O        0.3857884255    0.9824813514    1.3940391830
Cl      -7.7309901546    1.6178843022    4.1542200968
H       -3.6727292520    2.6425864515    1.6530326465
H       -4.3036719507   -1.4994517175    2.7531024439
H       -5.7903189981    3.2128008984    2.7625783602
H       -6.3665537855   -0.8883114444    3.8237553375
H       -2.0345385797    1.1553202405    0.9559828969
H       -0.2902819517   -1.8388246557   -0.1263376937
H        1.4903976251    2.5501835304    2.1746007594
H        1.9834393062    2.0092340496    0.5526733639
H        2.3768023601    1.0193104506    1.9820576639
24   

C       -2.0782022028   -2.1270413610    1.6999928338
C       -4.3084161159    1.8512594513    2.0437752637
C       -4.5277833609   -0.4416686255    2.7311463535
C       -5.5002788346    2.1648558029    2.7070343433
C       -5.7176320930   -0.1212926213    3.3959619388
C       -3.7910180462    0.5434593115    2.0375742740
C       -6.2160270661    1.1817767153    3.3905544939
C       -2.5268112474    0.3062815912    1.2989886350
C       -0.5399750684   -0.8445091345    0.2985601235
C       -1.8025910781   -0.8618576309    1.0870999530
C        1.6682288080    1.5501306233    1.6728884483
N       -2.2773950687   -3.1728348948    2.1730037739
N        0.4930966750   -0.1014586829    0.4732040384
O        0.4072234684    0.9177451065    1.4544239121
Cl      -7.7023353638    1.5727002675    4.2194674853
H       -3.7827342830    2.6440086600    1.5237851507
H       -4.2234306713   -1.4751489942    2.7868423838
H       -5.8773089046    3.1807639837    2.6930536431
H       -6.2627971288   -0.8957183154    3.9233157047
H       -2.1089004724    1.1849874986    0.8201958369
H       -0.3773161542   -1.6879204520   -0.3627944188
H        1.5753668248    2.2927371036    2.4705028907
H        2.0005738144    2.0521970817    0.7591930104
H        2.4179416169    0.8089589839    1.9664626983
24   

C       -1.9593587537   -1.9841903262    1.7756269911
C       -4.4445329083    1.8542639355    1.9228131155
C       -4.4856445495   -0.3922524676    2.7772286673
C       -5.6306466068    2.1378267232    2.6095251479
C       -5.6694042410   -0.1013198323    3.4659976364
C       -3.8414900726    0.5853860013    1.9877654177
C       -6.2538664402    1.1632027817    3.3891162779
C       -2.5920586065    0.3752596507    1.2171764346
C       -0.5913677596   -0.7076714819    0.1827039262
C       -1.8084924971   -0.7598974629    1.0500869482
C        1.7740182396    1.3547545084    1.7959693931
N       -2.0624730138   -2.9974300471    2.3412755460
N        0.4870932254   -0.0532008256    0.4128416858
O        0.4767779423    0.8232037768    1.5268268396
Cl      -7.7323432707    1.5172002676    4.2480846703
H       -3.9924322608    2.6390160500    1.3270721000
H       -4.1103702653   -1.3972376647    2.8921559262
H       -6.0756755257    3.1234141918    2.5388164546
H       -6.1419143211   -0.8685849730    4.0685544074
H       -2.2394015309    1.2428142633    0.6700690242
H       -0.5213173691   -1.4527615307   -0.6012366666
H        1.7541849745    1.9198874714    2.7321807914
H        2.0805276912    2.0229468096    0.9855924908
H        2.5054330241    0.5458564709    1.8882334653
24   

C       -1.8204039539   -1.7665053661    1.8704163927
C       -4.7098302608    1.7810972859    1.7072126583
C       -4.4380500940   -0.3144837455    2.8531494173
C       -5.8888717081    2.0200611622    2.4224301847
C       -5.6172955197   -0.0691537378    3.5669653156
C       -3.9548647844    0.6104008308    1.9018243771
C       -6.3540081657    1.0973446647    3.3595473314
C       -2.7216478231    0.4428504329    1.0953795196
C       -0.6367086240   -0.5113007818    0.1076312839
C       -1.7989260670   -0.5941815260    1.0501650071
C        1.9788210588    1.0644854546    1.8713369999
N       -1.8226008372   -2.7375861053    2.5142452983
N        0.4983718764    0.0267339744    0.3584962557
O        0.6378761585    0.6404158233    1.6286140770
Cl      -7.8244009511    1.3955431002    4.2528701085
H       -4.3830093495    2.5239665970    0.9885854308
H       -3.9360485648   -1.2419281420    3.0807594940
H       -6.4517346676    2.9302481887    2.2514870823
H       -5.9655932148   -0.7947834464    4.2930591232
H       -2.4994702205    1.2650129798    0.4241280412
H       -0.7481186048   -0.9947280159   -0.8557163055
H        2.0594922558    1.4697109002    2.8840374392
H        2.2622737325    1.8420911393    1.1556527211
H        2.6673500528    0.2195767702    1.7734716894
24   

C       -1.6789809878   -1.4939832064    1.9678020214
C       -5.0110509739    1.5987368919    1.4812806761
C       -4.3846157611   -0.2101087784    2.9352662646
C       -6.1854873598    1.7860056054    2.2190389503
C       -5.5629660130   -0.0203746944    3.6673106043
C       -4.0821506817    0.5969663874    1.8167079558
C       -6.4738478569    0.9770527979    3.3182124918
C       -2.8615061598    0.4809055218    0.9821633700
C       -0.6615269247   -0.2592715571    0.0810745943
C       -1.7741845763   -0.3789471581    1.0744385095
C        2.2143867369    0.7326529069    1.8745280851
N       -1.5908192239   -2.4176273470    2.6727757446
N        0.5292294732    0.1428865108    0.3309301293
O        0.8354935343    0.4170741617    1.6878198820
Cl      -7.9396581058    1.2096264195    4.2381477652
H       -4.8243800221    2.2513250269    0.6361153555
H       -3.7366465337   -0.9985133530    3.2854663835
H       -6.8826350350    2.5673515124    1.9397535382
H       -5.7723162549   -0.6552390733    4.5206502943
H       -2.7874316957    1.2115554400    0.1845035576
H       -0.9219578566   -0.3494003832   -0.9668263041
H        2.3915686360    1.0017484102    2.9197695935
H        2.4988636597    1.5772682783    1.2395961088
H        2.8356012011   -0.1317448321    1.6216839467
24   

C       -2.2439047991   -2.3543558026    1.8998735438
C       -4.2844256915    1.7127327963    1.5689088318
C       -4.4007380393   -0.2935282929    2.8879167313
C       -5.3960597937    2.2245307448    2.2477206448
C       -5.5157681073    0.2217290397    3.5600566998
C       -3.7600573476    0.4416116135    1.8665598355
C       -6.0243851023    1.4828647950    3.2480583677
C       -2.5734999962   -0.0111672688    1.1000594376
C       -0.6748079127   -1.3588787566    0.2536256830
C       -1.8425303048   -1.1919826809    1.1630587128
C        2.0403253671   -2.5809876584    2.1632701371
N       -2.5684324609   -3.3135872771    2.4767880986
N        0.5147122748   -1.7077308038    0.5856394239
O        0.7413970675   -2.0323077031    1.9470992817
Cl      -7.4129586592    2.1202048766    4.0934030505
H       -3.8253603685    2.3235134404    0.8000119403
H       -4.0701561922   -1.2697738881    3.2071756469
H       -5.7777870361    3.2079686682    1.9993517958
H       -5.9915808794   -0.3648332551    4.3376200492
H       -2.1922757759    0.7168450075    0.3928107513
H       -0.7786295817   -0.9762297790   -0.7548188168
H        2.1887689459   -2.7624770589    3.2316327174
H        2.8082132849   -1.8844169669    1.8133519884
H        2.1427029567   -3.5286216049    1.6261803531
24   

C       -2.0704835847   -2.1765831022    2.0973384390
C       -4.3962065864    1.6943637897    1.5082662412
C       -4.3687486070   -0.2221251136    2.9587430103
C       -5.5468191529    2.1653799812    2.1504818187
C       -5.5230014871    0.2518223920    3.5942117785
C       -3.7792329151    0.4887939365    1.8903122003
C       -6.1232094950    1.4472782427    3.1979722394
C       -2.5589216014    0.0772397139    1.1529653044
C       -0.5779881383   -1.1589223108    0.3723664611
C       -1.7447115288   -1.0443273593    1.2781984468
C        2.0705142251   -2.8429853508    2.0182607934
N       -2.3362781080   -3.1105131850    2.7422201011
N        0.5878657615   -1.6353078195    0.6300090262
O        0.8329204781   -2.1391848941    1.9320571589
Cl      -7.5604956314    2.0334545396    3.9976762626
H       -3.9812380181    2.2852683111    0.6997933927
H       -3.9684832655   -1.1469159424    3.3441523190
H       -6.0001273068    3.0982517338    1.8360757010
H       -5.9578133480   -0.3154537769    4.4091949637
H       -2.2342998334    0.7897799955    0.4030204788
H       -0.6584450785   -0.6597887819   -0.5860935865
H        2.2135493478   -3.2089344749    3.0390584426
H        2.9008132596   -2.1784131788    1.7612513712
H        2.0676543274   -3.6968066078    1.3341687600
24   

C       -1.9331843839   -2.0117265858    2.3022586233
C       -4.4570306758    1.6832015358    1.4801621119
C       -4.3688269138   -0.1698157650    3.0081346125
C       -5.6405457273    2.1249589640    2.0818907120
C       -5.5555303180    0.2751579552    3.6036903301
C       -3.7910406927    0.5248552338    1.9224790010
C       -6.2027062335    1.4240316436    3.1483173132
C       -2.5397155455    0.1436280542    1.2199508393
C       -0.4981836799   -1.0008384557    0.5017708120
C       -1.6683757304   -0.9290097054    1.3971401852
C        2.0914639782   -3.0261988451    1.8503941860
N       -2.1510448245   -2.9041250648    3.0201411503
N        0.6362471710   -1.5849676878    0.6701434873
O        0.8826682298   -2.2702005659    1.8855410695
Cl      -7.6806888233    1.9738869102    3.8980645003
H       -4.0559033793    2.2598799945    0.6546060071
H       -3.9374806890   -1.0603117615    3.4374450515
H       -6.1310155458    3.0213407135    1.7205577939
H       -5.9794400418   -0.2786758344    4.4335336432
H       -2.2493986859    0.8396038512    0.4410074462
H       -0.5534511455   -0.4068957314   -0.4028976819
H        2.2182629188   -3.5577738238    2.7979171060
H        2.9471142490   -2.3610658107    1.7006194342
H        2.0567390100   -3.7573781003    1.0372669069
24   

C       -3.0037669818   -1.9072035395    0.4048070009
C       -4.0623681516    2.0855175086    2.3025684154
C       -4.5862892963   -0.2479436407    2.5375121684
C       -4.9573514132    2.3919868258    3.3335304189
C       -5.4821730963    0.0653692625    3.5672164351
C       -3.8527191895    0.7609390400    1.8744391512
C       -5.6771227837    1.3849292823    3.9753373971
C       -2.8788834312    0.5446781243    0.7735534939
C       -1.4551786517   -0.4364430594   -0.9468528024
C       -2.4541737722   -0.6113352694    0.1190144262
C       -0.0606670279   -3.4963129294   -2.1202693772
N       -3.4555556011   -2.9595005115    0.6240663667
N       -0.7349434441   -1.2952464606   -1.5813668447
O       -0.8357291504   -2.6695527938   -1.2546061709
Cl      -6.7949541145    1.7670831201    5.2611456385
H       -3.5246836963    2.9011887769    1.8329129825
H       -4.5010280772   -1.2962532416    2.2997996255
H       -5.0975844697    3.4214573860    3.6420178267
H       -6.0337454264   -0.7283993324    4.0579175721
H       -2.4119805345    1.4603224476    0.4288011592
H       -1.2470729355    0.5872607626   -1.2347084919
H       -0.2011666041   -4.5458266545   -1.8459212168
H        1.0004478639   -3.2459418208   -2.0294181829
H       -0.3762823418   -3.3573794773   -3.1585703462
24   

C       -2.8064510763   -1.9340898269    0.6016928390
C       -4.1000312526    2.0891193051    2.2734049989
C       -4.5694499409   -0.2494009813    2.5652550085
C       -5.0365388605    2.4026228025    3.2645618044
C       -5.5054981545    0.0707820737    3.5564252695
C       -3.8397966733    0.7580883424    1.8956342242
C       -5.7487105396    1.3964099802    3.9159618876
C       -2.8260454858    0.5361323493    0.8321598890
C       -1.3163649093   -0.4483061282   -0.8066626124
C       -2.3401342554   -0.6264459398    0.2329625435
C       -0.1534715412   -3.4866492089   -2.2637533271
N       -3.1822128915   -2.9974110539    0.8979754211
N       -0.6806834443   -1.3002315620   -1.5344412011
O       -0.9398955577   -2.6842565814   -1.3855827488
Cl      -6.9175666531    1.7872008425    5.1528688957
H       -3.5704705769    2.9047307182    1.7945045755
H       -4.4537562935   -1.3015322799    2.3600348315
H       -5.2155253231    3.4370199016    3.5340706967
H       -6.0515949185   -0.7223223081    4.0542774701
H       -2.3903727421    1.4566239541    0.4606020132
H       -1.0303145683    0.5760349181   -1.0139473386
H       -0.4019178765   -4.5415743405   -2.1157404528
H        0.9107279276   -3.3415207526   -2.0556122936
H       -0.3572497053   -3.2182141715   -3.3046019221
24   

C       -2.6037150066   -1.9405237091    0.7925119273
C       -4.1279394087    2.0905834515    2.2384537964
C       -4.5443270556   -0.2516523699    2.5779786963
C       -5.1054872358    2.4039106274    3.1892540506
C       -5.5200571109    0.0682968118    3.5301672481
C       -3.8184254997    0.7577899100    1.9073515517
C       -5.8105018565    1.3957109570    3.8454794126
C       -2.7656868591    0.5350325354    0.8830310940
C       -1.1717387396   -0.4595188385   -0.6722969044
C       -2.2227508215   -0.6306577548    0.3430446736
C       -0.2988038507   -3.4766411368   -2.3515930907
N       -2.9001866524   -3.0057617429    1.1625022171
N       -0.6315431738   -1.3036699054   -1.4813762099
O       -1.0716755514   -2.6497522992   -1.4840907207
Cl      -7.0296760385    1.7862946800    5.0328933097
H       -3.6057165125    2.9074836569    1.7537280475
H       -4.3977867775   -1.3049936045    2.3998755598
H       -5.3224868159    3.4396949797    3.4231369208
H       -6.0610210078   -0.7262859745    4.0312529962
H       -2.3569966002    1.4555194867    0.4818689137
H       -0.8031436749    0.5508678642   -0.8041917509
H       -0.6573155501   -4.5081465971   -2.2887222929
H        0.7551437074   -3.4506169185   -2.0591806597
H       -0.3948233918   -3.1311520194   -3.3851885518
24   

C       -2.3822467273   -1.9342920784    0.9819202827
C       -4.1471510997    2.0784237569    2.1965124164
C       -4.4961646413   -0.2673412137    2.5860365432
C       -5.1656300812    2.3825624530    3.1065443707
C       -5.5118025797    0.0434785145    3.4986209152
C       -3.7818831064    0.7489393587    1.9136927003
C       -5.8565639425    1.3680509623    3.7683457992
C       -2.6915057046    0.5325508729    0.9293286329
C       -1.0146782546   -0.4750098126   -0.5425437729
C       -2.0923631645   -0.6314481071    0.4525429521
C       -0.4873093202   -3.4479958295   -2.4159093437
N       -2.5975289505   -2.9928466891    1.4204487860
N       -0.5810479191   -1.3027337013   -1.4276379628
O       -1.1951566456   -2.5747807082   -1.5381817008
Cl      -7.1260614978    1.7473201772    4.9056369135
H       -3.6374989606    2.8991708367    1.7049540218
H       -4.3109102694   -1.3191908234    2.4354751146
H       -5.4259989813    3.4159503209    3.3038714064
H       -6.0420294588   -0.7558952119    4.0035303775
H       -2.3090817318    1.4497360150    0.4958079609
H       -0.5663255021    0.5093087648   -0.6084449214
H       -0.9885503633   -4.4196827465   -2.4480019790
H        0.5377401963   -3.5910165783   -2.0612101946
H       -0.4638492712   -3.0284945923   -3.4260848305
24   

C       -2.1693763200   -1.9215364679    1.1806625953
C       -4.1721961583    2.0600093654    2.1201177163
C       -4.4304371455   -0.2793862962    2.6080099451
C       -5.2335762569    2.3581194805    2.9819782971
C       -5.4886262979    0.0256260131    3.4728656052
C       -3.7393965609    0.7372379377    1.9127225792
C       -5.9005093601    1.3440541125    3.6689872955
C       -2.6101550132    0.5226788551    0.9740697715
C       -0.8439075396   -0.5089418113   -0.3960750777
C       -1.9560263726   -0.6386659650    0.5740871196
C       -0.7102861592   -3.3764148358   -2.4746723061
N       -2.3189667800   -2.9636288020    1.6810760565
N       -0.5247051474   -1.3040526962   -1.3544188793
O       -1.3002777321   -2.4761240181   -1.5388403385
Cl      -7.2232266517    1.7160470455    4.7464713907
H       -3.6831872562    2.8792080132    1.6055485358
H       -4.1936181927   -1.3273346635    2.5096823719
H       -5.5467076541    3.3862655345    3.1214565476
H       -5.9996994913   -0.7734341611    3.9976224459
H       -2.2510528309    1.4293501352    0.5002478381
H       -0.3098681468    0.4339558554   -0.3968981514
H       -1.3440823542   -4.2614960138   -2.5811656004
H        0.2780876496   -3.6897641477   -2.1254867305
H       -0.6107000438   -2.8932094634   -3.4512470699
24   

C       -1.9618382707   -1.9123904372    1.4231887960
C       -4.1971929739    2.0217137402    2.0045700486
C       -4.3457621514   -0.2849108956    2.6646616774
C       -5.2991838992    2.3247296324    2.8122009390
C       -5.4447478835    0.0253230993    3.4749273092
C       -3.6889907397    0.7131051439    1.9118268554
C       -5.9320730526    1.3299914432    3.5575009172
C       -2.5234875594    0.4878933391    1.0221637806
C       -0.6713298334   -0.5808436197   -0.2283932748
C       -1.8111469812   -0.6687101956    0.7262932735
C       -0.9677543830   -3.2391706429   -2.5429313409
N       -2.0583080899   -2.9234639712    1.9947661812
N       -0.4720696734   -1.3200230093   -1.2584505560
O       -1.3902721439   -2.3754702508   -1.4891287198
Cl      -7.3055029097    1.7083093443    4.5672119005
H       -3.7368123008    2.8247068214    1.4404380351
H       -4.0496261007   -1.3224087952    2.6529308648
H       -5.6711406853    3.3413942386    2.8631119394
H       -5.9285059271   -0.7589473734    4.0458559909
H       -2.1915073576    1.3701944143    0.4865628912
H       -0.0441581718    0.3005254335   -0.1651070702
H       -1.7289029182   -4.0051610607   -2.7169527147
H       -0.0277116712   -3.7297800091   -2.2735000811
H       -0.8240265167   -2.6681369907   -3.4651874934
24   

C       -2.7750763730   -1.6415483457    0.1851310177
C       -3.6624796974    1.5412569040    3.3456232882
C       -4.7965874170   -0.1721477675    2.0980610322
C       -4.8520320619    1.8382975849    4.0204558441
C       -5.9828071068    0.1270963099    2.7790406883
C       -3.6016769456    0.5293958921    2.3702429370
C       -6.0234760530    1.1328991452    3.7450264383
C       -2.2989620230    0.2936089090    1.7014172463
C       -0.5259410879   -0.6120492509    0.2060571793
C       -1.9375490094   -0.6014390722    0.7022061101
C       -0.6198235654    0.4019795042   -3.1755419677
N       -3.4336830032   -2.5064198315   -0.2345325122
N       -0.1358068793   -0.2412133178   -0.9569651526
O       -1.1474360723    0.1314977005   -1.8777464005
Cl      -7.5075290416    1.5024486603    4.5876385172
H       -2.7757639239    2.1156742628    3.5881075955
H       -4.8637682971   -0.9583913052    1.3622825684
H       -4.8709347044    2.6249647326    4.7656507467
H       -6.8858927827   -0.4280815398    2.5525832780
H       -1.4999955470    0.9530341203    2.0214292876
H        0.2550947801   -0.7777708836    0.9385615966
H       -1.4224341446    0.7458361931   -3.8342629556
H       -0.1790912348   -0.5054581412   -3.5990301334
H        0.1471223931    1.1803669556   -3.1177229524
24   

C       -2.7790387869   -1.9152037591    0.3546117579
C       -3.6978442785    1.7256067341    2.9745974871
C       -4.7594237907   -0.2791568470    2.1792969791
C       -4.8656942179    2.0713128076    3.6640777998
C       -5.9255721143    0.0727813219    2.8696482017
C       -3.6127593329    0.5440343463    2.2162995643
C       -5.9911274655    1.2483673238    3.6181170008
C       -2.3328133374    0.2596888169    1.5234507573
C       -0.5583397116   -0.8588911705    0.1693292580
C       -1.9458142884   -0.8154070930    0.7339882373
C       -0.7004342022    0.7439746212   -2.9683823639
N       -3.4307454467   -2.8296843284    0.0439352275
N       -0.1841475263   -0.3502671353   -0.9450962576
O       -1.1697102039    0.3586678913   -1.6767996925
Cl      -7.4487421385    1.6797990812    4.4773188082
H       -2.8458950174    2.3930598266    3.0360984553
H       -4.8020981469   -1.2051912719    1.6273772714
H       -4.9031558652    2.9873433059    4.2419730236
H       -6.7927535925   -0.5760009637    2.8234113626
H       -1.5650909350    1.0143103638    1.6539972731
H        0.1846646195   -1.4143098265    0.7293361880
H       -1.5092201283    1.2250056142   -3.5258345059
H       -0.3611272440   -0.1342386825   -3.5261771371
H        0.1303488610    1.4493537804   -2.8711569209
24   

C       -2.7784924222   -2.1329244016    0.5281639594
C       -3.7414066565    1.8041671648    2.6504822532
C       -4.7166793783   -0.3588264771    2.2647237163
C       -4.8816401385    2.1918421468    3.3635214493
C       -5.8568875143    0.0362554989    2.9747832035
C       -3.6280695978    0.5221206470    2.0834998851
C       -5.9511953013    1.3121167763    3.5313841862
C       -2.3773247611    0.1979832811    1.3556997942
C       -0.6171275668   -1.0473501612    0.0925855276
C       -1.9609721403   -0.9785651576    0.7450245941
C       -0.7125957511    1.0346859957   -2.7544451536
N       -3.4141997309   -3.0921028763    0.3462271554
N       -0.2442146510   -0.4224458250   -0.9631557509
O       -1.1433893905    0.5402441677   -1.4864744449
Cl      -7.3750093919    1.7961000652    4.4188264676
H       -2.9318842983    2.5171901773    2.5436771606
H       -4.7316331807   -1.3645619031    1.8744785203
H       -4.9407313719    3.1849695169    3.7932225974
H       -6.6805433042   -0.6579132219    3.0962646199
H       -1.6512196290    1.0024308111    1.3111977348
H        0.0339648128   -1.8552710718    0.4055894080
H       -1.4874903162    1.6769084862   -3.1826374902
H       -0.5230578163    0.2048113123   -3.4423197146
H        0.2055139048    1.6181053444   -2.6367808225
24   

C       -2.7938317289   -2.2821252747    0.6732330714
C       -3.7830108221    1.8089141997    2.4630248474
C       -4.7023230438   -0.4082602797    2.3319435039
C       -4.9022020412    2.2307764845    3.1898111613
C       -5.8213014804    0.0203908273    3.0561816694
C       -3.6527911333    0.4819992014    2.0153576580
C       -5.9328928982    1.3408420870    3.4925275028
C       -2.4263319401    0.1268062668    1.2606897067
C       -0.7136005239   -1.1923728431   -0.0040303020
C       -2.0063385797   -1.0866337586    0.7267614363
C       -0.6317531239    1.2072560790   -2.5989862531
N       -3.4018294568   -3.2743988550    0.6200388466
N       -0.3019883649   -0.4844557437   -0.9935787822
O       -1.1025465745    0.6168179856   -1.3875738053
Cl      -7.3302157133    1.8669627883    4.3979091482
H       -3.0037470973    2.5315055673    2.2490265852
H       -4.7018523849   -1.4471851203    2.0413006011
H       -4.9751299217    3.2588854091    3.5246112614
H       -6.6145708395   -0.6824552315    3.2837136695
H       -1.7254281678    0.9428068544    1.1232574503
H       -0.1388121058   -2.0950354614    0.1692087500
H       -1.3035437219    2.0158960903   -2.9007739797
H       -0.5989895216    0.4594164063   -3.3972728459
H        0.3719606231    1.6175580753   -2.4521306439
24   

C       -2.7889644805   -2.3645686435    0.7919289066
C       -3.8205369188    1.8058926359    2.3523509797
C       -4.7044158808   -0.4292089576    2.3588507577
C       -4.9164645463    2.2421773392    3.1056546019
C       -5.7987400745    0.0131986768    3.1118746426
C       -3.6833942440    0.4619173486    1.9604520698
C       -5.9161208666    1.3499090583    3.4932267759
C       -2.4811691122    0.0944856297    1.1716424745
C       -0.8159179975   -1.2735207655   -0.1204371556
C       -2.0577708428   -1.1355286286    0.6758838724
C       -0.5030126208    1.3327291345   -2.5008843948
N       -3.3474836992   -3.3837844879    0.8713278083
N       -0.3458310392   -0.5129112420   -1.0460099146
O       -1.0435595458    0.6820935427   -1.3510177193
Cl      -7.2829771431    1.8932257271    4.4342757903
H       -3.0652623693    2.5313801685    2.0723182840
H       -4.7015671013   -1.4793188142    2.1126429236
H       -4.9952164791    3.2835211669    3.3951308799
H       -6.5682538509   -0.6917271566    3.4051415885
H       -1.8053788900    0.9194938405    0.9795378539
H       -0.3060033905   -2.2268889606   -0.0377011991
H       -1.0496137426    2.2609381167   -2.6905249607
H       -0.5927140378    0.6845195848   -3.3778893673
H        0.5526225836    1.5713270536   -2.3388371911
24   

C       -2.7815145362   -2.3991857624    0.9062001447
C       -3.8697628387    1.8162355942    2.2724475477
C       -4.7168292647   -0.4298578662    2.3879212114
C       -4.9344474121    2.2591345207    3.0656990838
C       -5.7780862963    0.0186905087    3.1833917720
C       -3.7285163497    0.4626656698    1.9157090125
C       -5.8977092194    1.3641886698    3.5310708663
C       -2.5583695189    0.0900171835    1.0806097812
C       -0.9450626231   -1.3233069336   -0.2483162967
C       -2.1293498216   -1.1518267352    0.6163826867
C       -0.3496987101    1.4235375453   -2.4203196270
N       -3.2736187359   -3.4328782841    1.1214982953
N       -0.4089312742   -0.5383205065   -1.1185803382
O       -0.9876276595    0.7341926143   -1.3453384688
Cl      -7.2235541480    1.9151585155    4.5248722352
H       -3.1422380422    2.5446881199    1.9329893083
H       -4.7150238628   -1.4856814165    2.1681938459
H       -5.0168149288    3.3078353827    3.3261212069
H       -6.5201759500   -0.6883919531    3.5361560337
H       -1.9179748713    0.9263336741    0.8326281278
H       -0.4997364251   -2.3121809496   -0.2365390728
H       -0.7735728989    2.4271087160   -2.5178428469
H       -0.5040400597    0.8819829722   -3.3584583802
H        0.7244566994    1.5112685499   -2.2301570060
24   

C       -2.7625250196   -2.4233510535    0.9849671145
C       -3.9586526218    1.8078770393    2.1644499420
C       -4.7093817065   -0.4582881088    2.4396915295
C       -4.9872191156    2.2513184552    3.0035700817
C       -5.7333813083   -0.0090236093    3.2822917422
C       -3.7867631507    0.4439375230    1.8635692142
C       -5.8825368575    1.3467552612    3.5737019291
C       -2.6571602242    0.0745335782    0.9714117313
C       -1.0839655371   -1.3696797884   -0.3937241613
C       -2.2076454588   -1.1732093543    0.5384782330
C       -0.1604825135    1.4786336777   -2.3207579415
N       -3.1747826593   -3.4595079134    1.3218637632
N       -0.4793282197   -0.5709315366   -1.2063911282
O       -0.9143040445    0.7689928777   -1.3379781830
Cl      -7.1618868706    1.8985675934    4.6262330273
H       -3.2841319602    2.5450713139    1.7440258534
H       -4.6844015362   -1.5226214465    2.2682573483
H       -5.0941244149    3.3081690408    3.2180990981
H       -6.4231924261   -0.7237502759    3.7163568694
H       -2.0808038664    0.9294250016    0.6504087495
H       -0.7075452905   -2.3852605603   -0.4540739186
H       -0.4633894808    2.5296021362   -2.3293426696
H       -0.3390409179    1.0511589780   -3.3119793822
H        0.9085090019    1.4217575879   -2.0933552114
24   

C       -2.3715542403   -2.2612576559    1.4629268454
C       -4.0609951914    1.8152760493    2.5625768003
C       -4.7238078906   -0.4935140175    2.5008616122
C       -5.3383972039    2.1712610633    3.0095099934
C       -6.0004344666   -0.1307530198    2.9471953025
C       -3.7169923758    0.4768230463    2.2938790649
C       -6.3211464044    1.2017251077    3.2053261028
C       -2.3327589225    0.2076402828    1.8212400913
C       -0.3066549176   -1.1016173049    1.0097831080
C       -1.7047745089   -0.9856679089    1.4557584021
C        1.6025491913    1.9102497095    0.8954586958
N       -2.8639311231   -3.3169993174    1.4500737303
N        0.6380703922   -0.2364984354    0.8541275615
O        0.4300123771    1.1327215552    1.1361840831
Cl      -7.9157689648    1.6452139002    3.7616081498
H       -3.3286572635    2.6024763924    2.4237387090
H       -4.5768713107   -1.5485134334    2.3349117145
H       -5.5732755416    3.2105687954    3.2072452167
H       -6.7539289832   -0.8957145209    3.0959930392
H       -1.7492125913    1.1109342454    1.7582589655
H        0.0126243131   -2.1068095106    0.7556963626
H        1.3976532775    2.9624040311    1.1131284994
H        1.9078066278    1.8193408202   -0.1514194981
H        2.4198385436    1.5693493804    1.5382332498
