16   

C        0.5685548690    0.9073198389    1.7697429554
C        0.3143318109    0.9281032600    3.1213509818
C       -0.2670454327    0.1712634217    0.9609698511
C       -4.2901462574   -1.9824864150    4.4734433296
C       -4.3545976375   -2.5770880522    3.2561997859
C       -1.4934568340   -0.4679937987    2.7986909337
C       -2.6556103790   -1.2100371894    3.3143732217
N       -0.7071278599    0.2522346215    3.6304765151
N       -1.2902884055   -0.5056209028    1.4705701510
N       -3.2196027328   -1.1199490757    4.4892672797
O       -3.3360521222   -2.1019652319    2.5028808978
H        1.4010377269    1.4574735918    1.3549759278
H        0.9537153376    1.5026162445    3.7819506365
H       -0.0900186195    0.1427078854   -0.1081099487
H       -4.9723046116   -2.1572476690    5.2972038362
H       -5.0925456779   -3.3047723064    2.9412513412
16   

C        0.5496273989    0.9357163805    1.7705375150
C        0.3495698182    0.8855655470    3.1305478133
C       -0.3269066118    0.2537907302    0.9574758345
C       -4.3557287434   -1.9004810428    4.4256137527
C       -4.2995817470   -2.6377150146    3.2883815591
C       -1.4777479449   -0.4832503314    2.8063988359
C       -2.6427222414   -1.2214117697    3.3261236023
N       -0.6573812119    0.1909357924    3.6435347950
N       -1.3356500983   -0.4417875513    1.4708379040
N       -3.3131256816   -1.0040693353    4.4248001171
O       -3.2312741459   -2.2204405856    2.5703976258
H        1.3704316880    1.5008601667    1.3526636026
H        1.0200763025    1.4191437994    3.7946137713
H       -0.1950907994    0.2847843336   -0.1180471438
H       -5.1028716607   -1.9991117124    5.2044054222
H       -4.9896972429   -3.4225299117    3.0036079539
16   

C        0.5266042753    0.9560082972    1.7801783703
C        0.3825529820    0.8317206413    3.1427078066
C       -0.3961943379    0.3365433779    0.9680094463
C       -4.4285086555   -1.8300471782    4.3684710045
C       -4.2508699858   -2.6976983464    3.3406419016
C       -1.4752862876   -0.4932138506    2.8191821012
C       -2.6448301174   -1.2267187641    3.3449546727
N       -0.6139017470    0.1238894497    3.6585493516
N       -1.3944189507   -0.3722256736    1.4839204559
N       -3.4176458492   -0.8981300261    4.3419975164
O       -3.1363031993   -2.3282994938    2.6679470358
H        1.3389026951    1.5316852752    1.3600616646
H        1.0890427190    1.3172042074    3.8063662707
H       -0.3103088077    0.4289727676   -0.1086375448
H       -5.2382739066   -1.8627460157    5.0879737812
H       -4.8900763380   -3.5381936841    3.0992288063
16   

C        0.5179017711    0.9731969239    1.7821794510
C        0.4265136077    0.7646825879    3.1392510457
C       -0.4571851654    0.4352658664    0.9725231216
C       -4.5022341667   -1.7696671953    4.2712813926
C       -4.1948441855   -2.7513209648    3.3860982358
C       -1.4813653195   -0.4822925105    2.8107191904
C       -2.6595605159   -1.2108311084    3.3375966994
N       -0.5696115825    0.0536254659    3.6518492396
N       -1.4549736009   -0.2768829486    1.4846615471
N       -3.5330299148   -0.7959078995    4.2082981269
O       -3.0393164395   -2.4120780675    2.7686592684
H        1.3298043617    1.5514511763    1.3648354403
H        1.1748531464    1.1856087256    3.8011216440
H       -0.4132757946    0.5958093076   -0.0986409500
H       -5.3728281674   -1.7529831151    4.9164702694
H       -4.7737408843   -3.6485475586    3.2039692146
16   

C        0.5373687967    0.9581939551    1.7940608254
C        0.4897902013    0.6486182522    3.1342967497
C       -0.4972431863    0.5356257602    0.9893128575
C       -4.5684255358   -1.7328899567    4.1732863036
C       -4.1156502241   -2.8118865330    3.4851136794
C       -1.4997784989   -0.4566916257    2.7973529361
C       -2.6907725131   -1.1803801207    3.3168223428
N       -0.5234329747   -0.0464119563    3.6358722328
N       -1.5121980661   -0.1604925895    1.4896705408
N       -3.6616811886   -0.7073330203    4.0382544482
O       -2.9308067775   -2.4816594138    2.9202657642
H        1.3628494169    1.5236988219    1.3859643814
H        1.2875915360    0.9752300045    3.7916432920
H       -0.4860132529    0.7745098655   -0.0680009290
H       -5.4954085597   -1.6861621050    4.7327606275
H       -4.6155091136   -3.7692067889    3.4014369205
16   

C        0.5740325478    0.8960398187    1.7913719192
C        0.5562891475    0.4482224746    3.0926934316
C       -0.5243555687    0.6446546321    0.9995042499
C       -4.6320078883   -1.7129599428    4.0845682440
C       -4.0168857756   -2.8524174527    3.6760425025
C       -1.5489509433   -0.4156586591    2.7548189642
C       -2.7533230178   -1.1393395868    3.2498830875
N       -0.4938640342   -0.2067515257    3.5720411769
N       -1.5764881397   -0.0104606281    1.4779384327
N       -3.8145575981   -0.6419060840    3.8064434467
O       -2.8196625521   -2.5143529206    3.1426446813
H        1.4287506439    1.4302566998    1.4017138263
H        1.4088065465    0.6304786077    3.7371047122
H       -0.5325530937    0.9850647901   -0.0296519693
H       -5.6075831866   -1.6571970576    4.5532325793
H       -4.4144517216   -3.8563606555    3.7619112199
16   

C        0.6000314360    0.8475467998    1.7730022327
C        0.6091065578    0.2599573009    3.0171601978
C       -0.5452379512    0.7507946728    1.0148409284
C       -4.6723160475   -1.7173359340    3.9843855031
C       -3.9270343809   -2.8460596687    3.8704220338
C       -1.5753462498   -0.4000753966    2.7110917457
C       -2.7829038375   -1.1348424342    3.1739509294
N       -0.4629594280   -0.3723408676    3.4780347160
N       -1.6187545650    0.1188600123    1.4763408526
N       -3.9230281567   -0.6454708796    3.5578152902
O       -2.7168777457   -2.5002652184    3.3728325247
H        1.4718431553    1.3648055601    1.3986527131
H        1.5011633509    0.3111904974    3.6310588461
H       -0.5729593541    1.1943974679    0.0261288575
H       -5.6892971149   -1.6687523730    4.3557137744
H       -4.2444437694   -3.8479118427    4.1328393343
16   

C        0.6010576196    0.8549596937    1.7665236313
C        0.6430540072    0.1625567490    2.9546047610
C       -0.5770952096    0.8558217707    1.0542926525
C       -4.7050781561   -1.7222714202    3.8740815091
C       -3.8907672626   -2.7997133486    4.0061674142
C       -1.5766016481   -0.3981200293    2.6974939077
C       -2.7800939182   -1.1407983584    3.1415150940
N       -0.4293168069   -0.4741658331    3.4085841546
N       -1.6504791918    0.2192979022    1.5091575262
N       -3.9783566284   -0.6785839134    3.3504301465
O       -2.6593964094   -2.4503616070    3.5667938567
H        1.4730067931    1.3763580891    1.3983023297
H        1.5616964319    0.1336106248    3.5295099139
H       -0.6312332847    1.3809373194    0.1074985695
H       -5.7541706376   -1.6884565526    4.1437966712
H       -4.1755637998   -3.7691506317    4.3965415407
16   

C        0.5897016717    0.8753218535    1.7665328619
C        0.6663028266    0.1009622449    2.9010755210
C       -0.6154394405    0.9441411155    1.1045664314
C       -4.7282992730   -1.7563542168    3.7573856316
C       -3.8805947444   -2.7585919082    4.1008361001
C       -1.5707774573   -0.4111713810    2.6943552372
C       -2.7686437239   -1.1575242146    3.1312680206
N       -0.3981303857   -0.5504152053    3.3530025001
N       -1.6808212062    0.2929535143    1.5568374322
N       -4.0049188901   -0.7459769222    3.1683711019
O       -2.6304382839   -2.3956112968    3.7310470543
H        1.4554665084    1.4083641352    1.4003970847
H        1.6061636630    0.0187505563    3.4350812273
H       -0.6978538471    1.5359597407    0.2001055114
H       -5.7988459270   -1.7509145675    3.9258415408
H       -4.1556262671   -3.6864012798    4.5874925917
16   

C        0.5736091673    0.9030115809    1.7741021766
C        0.6805127718    0.0611612750    2.8570419860
C       -0.6537842110    1.0267252059    1.1627810694
C       -4.7424971530   -1.8053116496    3.6458557366
C       -3.8848461465   -2.7125241179    4.1772400244
C       -1.5667023552   -0.4218526282    2.6951361807
C       -2.7608623401   -1.1667580728    3.1327682215
N       -0.3750978142   -0.6055962470    3.3073330292
N       -1.7105248848    0.3603973664    1.6127078023
N       -4.0153890222   -0.8292402137    3.0061071347
O       -2.6236288525   -2.3236800734    3.8778141936
H        1.4326566734    1.4477440051    1.4093499301
H        1.6374533491   -0.0621078988    3.3513462376
H       -0.7612373810    1.6754773122    0.3010020298
H       -5.8231843722   -1.8419842495    3.7182555449
H       -4.1608423300   -3.5937035693    4.7435047324
16   

C        0.5575385681    0.9389649497    1.7948424856
C        0.6871280171    0.0384841721    2.8270095584
C       -0.6872802737    1.1126751947    1.2327914320
C       -4.7466900025   -1.8621965110    3.5498495072
C       -3.8965609143   -2.6553049066    4.2492656560
C       -1.5674453144   -0.4204457477    2.7012357553
C       -2.7603092496   -1.1609466298    3.1439190763
N       -0.3621751142   -0.6408109876    3.2733535109
N       -1.7378423245    0.4339711890    1.6783088960
N       -4.0140596502   -0.9205851970    2.8664543822
O       -2.6340426190   -2.2277768809    4.0149748876
H        1.4119024678    1.4927935722    1.4327929478
H        1.6570947692   -0.1211964817    3.2841096780
H       -0.8139004716    1.8122078269    0.4144343695
H       -5.8263581438   -1.9546885935    3.5346613175
H       -4.1786596704   -3.4856851467    4.8850300285
16   

C        0.5490482707    0.9715122794    1.8276894898
C        0.6933541650    0.0150040850    2.8061468874
C       -0.7084557119    1.1943940047    1.3131706794
C       -4.7365171564   -1.9344065256    3.4596967364
C       -3.9122983183   -2.5985429813    4.3085284908
C       -1.5672838730   -0.4194497466    2.7059281953
C       -2.7615353951   -1.1545346662    3.1522033422
N       -0.3528687625   -0.6752285517    3.2428780937
N       -1.7560094260    0.5048648835    1.7489051560
N       -3.9947168180   -1.0285273564    2.7389717164
O       -2.6571353804   -2.1235707723    4.1335181916
H        1.4012459025    1.5331033526    1.4725553550
H        1.6725746094   -0.1803417515    3.2283351401
H       -0.8478368853    1.9427731888    0.5414265952
H       -5.8045171038   -2.0924963853    3.3656169019
H       -4.2069800314   -3.3739295672    5.0051254488
16   

C        0.5444762148    0.9979063467    1.8620135580
C        0.6973892156   -0.0133181031    2.7823902754
C       -0.7222285417    1.2704726478    1.3963615828
C       -4.7131963071   -2.0209923812    3.3795587323
C       -3.9305081381   -2.5413228034    4.3581220867
C       -1.5694809895   -0.4189194107    2.7038512655
C       -2.7662633005   -1.1489628187    3.1532201611
N       -0.3486010879   -0.7120742102    3.2058950024
N       -1.7694755096    0.5722733125    1.8189647141
N       -3.9608223167   -1.1526407893    2.6243712614
O       -2.6917923044   -2.0108769362    4.2322731104
H        1.3966328641    1.5655203624    1.5164868290
H        1.6832303388   -0.2452874960    3.1691471044
H       -0.8693455083    2.0662588743    0.6751351091
H       -5.7592866756   -2.2538939678    3.2185609429
H       -4.2420791109   -3.2570626925    5.1090864381
16   

C        0.6150824462    0.8468104905    1.7868972868
C       -0.3728292161    1.4660230746    2.5173374050
C        0.4896243944   -0.5000351182    1.5303548412
C       -3.9383968709   -2.8792662139    3.9036946523
C       -4.6336585773   -1.7145424228    3.9351608450
C       -1.4726472766   -0.5480637769    2.7248364727
C       -2.6255460079   -1.3481765063    3.1755755822
N       -1.4140043276    0.7800035189    2.9722920363
N       -0.5514015026   -1.1873322576    1.9853474193
N       -2.6694849395   -2.6259683864    3.4385339312
O       -3.8204052427   -0.7278814258    3.4917126416
H        1.4639794600    1.4050931074    1.4188818219
H       -0.3037573194    2.5276527234    2.7257596027
H        1.2493234311   -1.0085054940    0.9477710915
H       -4.3197337899   -3.8491105728    4.2011100578
H       -5.6600975486   -1.5945563190    4.2597116009
16   

C        0.5951091199    0.8602453344    1.7652696203
C       -0.3520641718    1.4512098959    2.5692602646
C        0.4371934048   -0.4682244305    1.4403010991
C       -3.9160385494   -2.8506151818    4.0110922619
C       -4.6607634829   -1.7291283207    3.8415852528
C       -1.4661305941   -0.5597737231    2.7231230822
C       -2.6216733901   -1.3634341186    3.1721693703
N       -1.3827743045    0.7541527854    3.0311262089
N       -0.5936414797   -1.1661988809    1.9027220242
N       -2.6276872697   -2.5930315791    3.6050361616
O       -3.8592859826   -0.7671029744    3.3282104514
H        1.4361157404    1.4268986941    1.3919731985
H       -0.2592226841    2.4992365405    2.8305686714
H        1.1621357550   -0.9530274302    0.7964715462
H       -4.2765552273   -3.7925489762    4.4076591065
H       -5.7124825338   -1.6215876258    4.0774434050
16   

C        0.5809757268    0.8817749334    1.7600571834
C       -0.3121183408    1.4369938879    2.6470960610
C        0.3797161300   -0.4207666113    1.3623162431
C       -3.9005787752   -2.7956810376    4.1330362902
C       -4.6774803849   -1.7500643564    3.7528527463
C       -1.4537984945   -0.5619593934    2.7370103695
C       -2.6089975001   -1.3690837869    3.1965672664
N       -1.3313150788    0.7293179891    3.1181860097
N       -0.6398043041   -1.1291633807    1.8345128499
N       -2.5951895841   -2.5240685446    3.7956881570
O       -3.8787274345   -0.8234904109    3.1742121509
H        1.4128877389    1.4565979022    1.3789539403
H       -0.1857182557    2.4650850465    2.9669542065
H        1.0604205043   -0.8760970330    0.6520965065
H       -4.2510347658   -3.6940185539    4.6276625070
H       -5.7489660783   -1.6698746599    3.8899575565
16   

C        0.5723590060    0.8844681203    1.7640700052
C       -0.2463560563    1.4013442034    2.7417288719
C        0.3011108119   -0.3784324552    1.2872916024
C       -3.9105722545   -2.7336633159    4.2296161036
C       -4.7011543362   -1.8131965747    3.6211991243
C       -1.4582469152   -0.5563153344    2.7487684390
C       -2.6115783175   -1.3634286152    3.2290920036
N       -1.2628992979    0.6949659385    3.2204782393
N       -0.7156806128   -1.0860516851    1.7670537892
N       -2.5938726319   -2.4188595949    3.9857099661
O       -3.8992053513   -0.9227659098    2.9921845396
H        1.4017618831    1.4583100766    1.3760673315
H       -0.0626217372    2.3976445779    3.1275902406
H        0.9238430715   -0.8026869442    0.5079867022
H       -4.2602005594   -3.5754762537    4.8157957296
H       -5.7840596321   -1.7937001076    3.6371787995
16   

C        0.6051479427    0.8545196693    1.8013628933
C       -0.1052157644    1.3308181763    2.8797018990
C        0.2127102630   -0.3387666689    1.2367701621
C       -3.9165463279   -2.6675374870    4.3149062888
C       -4.6911815910   -1.9527473869    3.4589581394
C       -1.4743504222   -0.5152003559    2.7788121827
C       -2.6236319271   -1.3123750311    3.2916249820
N       -1.1401485673    0.6555371699    3.3639500043
N       -0.8227560545   -1.0161177907    1.7205709239
N       -2.6128503108   -2.2452491045    4.1933172265
O       -3.8923519202   -1.0831412769    2.7972930070
H        1.4484205088    1.4040071666    1.4080195569
H        0.1808247626    2.2688849665    3.3417415134
H        0.7549701512   -0.7327947760    0.3848283552
H       -4.2685757594   -3.4437214855    4.9843214156
H       -5.7611693957   -2.0595263019    3.3283502603
16   

C        0.6477117648    0.8047986204    1.8314666172
C        0.0476657558    1.2321967989    2.9940421141
C        0.1199226785   -0.2936510288    1.1900355001
C       -3.9334545260   -2.5834896635    4.3815430131
C       -4.6406940437   -2.1175999769    3.3206099048
C       -1.5082699164   -0.4512970737    2.7972532127
C       -2.6578079717   -1.2296652904    3.3307606956
N       -1.0171617419    0.6061935967    3.4793388667
N       -0.9461702170   -0.9213656854    1.6742781813
N       -2.6771100467   -2.0238054795    4.3582639729
O       -3.8473306554   -1.2662642185    2.6294093401
H        1.5144425996    1.3151326962    1.4363827712
H        0.4471428333    2.0900030941    3.5230537183
H        0.5803199587   -0.6539290580    0.2771618837
H       -4.2979121489   -3.2857426159    5.1221539680
H       -5.6608766550   -2.3817846112    3.0700966389
16   

C        0.6613869329    0.7817564498    1.8283727278
C        0.1374446753    1.1503821921    3.0461874879
C        0.0455511422   -0.2355077359    1.1343786946
C       -3.9709498334   -2.4784978806    4.4423446909
C       -4.5874583620   -2.2274662676    3.2597278198
C       -1.5277878163   -0.4203437647    2.7957815768
C       -2.6806488808   -1.1826799398    3.3308197095
N       -0.9402530272    0.5481655638    3.5325281347
N       -1.0335638144   -0.8391441317    1.6203392914
N       -2.7588060165   -1.8288773053    4.4575632802
O       -3.7815530945   -1.4217529169    2.5297252795
H        1.5384712315    1.2730399495    1.4320099101
H        0.6085147752    1.9412566439    3.6187904512
H        0.4467193817   -0.5516407327    0.1782308827
H       -4.3663776192   -3.0957887317    5.2405112286
H       -5.5544388984   -2.6069007216    2.9526674544
16   

C        0.6485991710    0.7932422718    1.8194548206
C        0.1852478424    1.0950057578    3.0791889991
C       -0.0261043407   -0.1572570516    1.0871711762
C       -4.0258879109   -2.3671802142    4.4981224563
C       -4.5448319121   -2.3054527442    3.2460470274
C       -1.5379093742   -0.4096308674    2.7990505095
C       -2.6924606036   -1.1631347926    3.3296527631
N       -0.8902869150    0.4926974011    3.5695862469
N       -1.1030646304   -0.7609637122    1.5777469089
N       -2.8478532445   -1.6583059102    4.5254558056
O       -3.7112503681   -1.5611642582    2.4828905473
H        1.5240367986    1.2846679173    1.4196541711
H        0.7028378105    1.8325413879    3.6820209930
H        0.3261160252   -0.4202030992    0.0962683099
H       -4.4649494011   -2.8944692836    5.3369694286
H       -5.4645604902   -2.7716731276    2.9143308473
16   

C        0.6390436331    0.8164144340    1.7993192957
C        0.2276734372    1.0482047348    3.0912998852
C       -0.0790593870   -0.0768954579    1.0372633858
C       -4.0815221089   -2.2663277621    4.5138930085
C       -4.4925842115   -2.3802024717    3.2262501974
C       -1.5265763238   -0.4181013507    2.7906759977
C       -2.6826881491   -1.1680852169    3.3132557480
N       -0.8382236882    0.4322232277    3.5853105055
N       -1.1464673258   -0.6942013396    1.5317398107
N       -2.9323388767   -1.5121183562    4.5473881972
O       -3.6187573434   -1.7034489700    2.4456534743
H        1.5068391883    1.3188606330    1.3965731606
H        0.7786315132    1.7412887110    3.7168781012
H        0.2301518625   -0.2825892540    0.0188508198
H       -4.5756483436   -2.7025374596    5.3741414388
H       -5.3667127496   -2.9195029539    2.8822383793
16   

C        0.6187462882    0.8403533995    1.7859027133
C        0.2582869449    1.0028798202    3.1033091790
C       -0.1378562897   -0.0011037757    1.0025616700
C       -4.1479890507   -2.1721567747    4.5192091072
C       -4.4461628248   -2.4549189939    3.2267212409
C       -1.5155532864   -0.4385121097    2.7915777259
C       -2.6734916508   -1.1861795937    3.3086164109
N       -0.7938351189    0.3679216192    3.6025629591
N       -1.1915707643   -0.6373323437    1.5023516696
N       -3.0253022578   -1.3791905543    4.5518199329
O       -3.5261668773   -1.8483083871    2.4416753658
H        1.4755571837    1.3580481471    1.3789680924
H        0.8383574219    1.6565297603    3.7448139450
H        0.1286717082   -0.1490739926   -0.0377042450
H       -4.7026871142   -2.5169793728    5.3840040667
H       -5.2753485358   -3.0608711913    2.8823998834
16   

C        0.5898079137    0.8762618546    1.7727202995
C        0.2840117914    0.9680422455    3.1105953845
C       -0.2076048475    0.0878750136    0.9748306915
C       -4.2211135990   -2.0703401141    4.5082965208
C       -4.4054199752   -2.5124838249    3.2395704946
C       -1.5081915876   -0.4497870830    2.7943051359
C       -2.6678672084   -1.1944533766    3.3104140411
N       -0.7525632816    0.3131527800    3.6165124846
N       -1.2458837770   -0.5681688463    1.4812459901
N       -3.1237759062   -1.2424826400    4.5340625255
O       -3.4373279391   -1.9737839865    2.4629319423
H        1.4342984626    1.4097745529    1.3604945043
H        0.8948012401    1.5817913640    3.7629127198
H        0.0129489878   -0.0005466455   -0.0828192030
H       -4.8379525244   -2.3277251899    5.3613645425
H       -5.1902283033   -3.1801822592    2.9055990491
