23   

C        5.7000039827    1.7602111633    0.0652226959
C        4.7727681026    2.0879640543   -0.9234350317
C        5.4856006569    0.6380481297    0.8651667029
C        3.6365486255    1.2927406435   -1.1114235844
C        4.3483118577   -0.1559179033    0.6749331564
C        3.3976863882    0.1482551491   -0.3220298855
C        1.3270255911   -0.6473561124   -1.5648455472
C        2.1983112263   -0.6870352723   -0.5130619146
C        0.1892132559   -1.5997405101   -1.3689845388
C        1.7411792988   -1.7138808513    0.5142638396
C        0.8295704344   -2.5754299101   -0.3729920450
H        6.5808483913    2.3748712151    0.2125598238
H        4.9310625687    2.9611689226   -1.5459938170
H        6.2016099101    0.3797359228    1.6370456705
H        2.9307852090    1.5781864647   -1.8808306182
H        4.2252210710   -1.0149433579    1.3201337204
H        1.4458910494   -0.0288864507   -2.4460908241
H       -0.1209080292   -2.0962875207   -2.2938260519
H       -0.6561098400   -1.0751766910   -0.9115324434
H        1.1673353975   -1.2168682464    1.3029589761
H        2.5466275990   -2.3177692424    0.9401962124
H        0.1018300623   -3.1675892412    0.1908368284
H        1.4692694222   -3.2584096374   -0.9424397683
23   

C        5.6766885963    1.7465985524    0.0665801260
C        4.6709808323    2.1522271335   -0.8120348104
C        5.5464498789    0.5399925949    0.7562735633
C        3.5390799002    1.3507647163   -0.9997260304
C        4.4132840544   -0.2600647957    0.5665036384
C        3.3879415249    0.1268787584   -0.3171525404
C        1.4071579633   -0.7590295843   -1.6285643214
C        2.1913202213   -0.7122278493   -0.5124870485
C        0.2402921094   -1.6766199184   -1.4355961209
C        1.6315449795   -1.6215807353    0.5725220574
C        0.7810503958   -2.5578781886   -0.2999661868
H        6.5544409568    2.3658301474    0.2132079822
H        4.7652630553    3.0897673158   -1.3479876747
H        6.3253039038    0.2204126616    1.4392223463
H        2.7649726159    1.6874531439   -1.6783270286
H        4.3485326464   -1.1933549834    1.1101168395
H        1.6157133455   -0.2263660561   -2.5489613576
H       -0.0032068613   -2.2577485018   -2.3306050387
H       -0.6296256919   -1.1015437846   -1.1016176025
H        1.0016021630   -1.0384021882    1.2517944626
H        2.3876804479   -2.1786474496    1.1316471548
H       -0.0007657367   -3.0847267568    0.2562322518
H        1.4530620103   -3.2993701290   -0.7454938638
23   

C        5.6713873784    1.7393838934    0.0768845213
C        4.6016246756    2.2067060875   -0.6903570174
C        5.6120876009    0.4647471904    0.6458426019
C        3.4763862531    1.3981967030   -0.8885834560
C        4.4852066533   -0.3415989259    0.4455146035
C        3.4032627972    0.1089207824   -0.3287415061
C        1.4996781517   -0.8735556663   -1.6799114112
C        2.2086362474   -0.7352390689   -0.5238182256
C        0.3045394747   -1.7528623524   -1.4790194894
C        1.5561086867   -1.5166423168    0.6072323220
C        0.7488555591   -2.5246001603   -0.2259551790
H        6.5438766812    2.3641032751    0.2314294940
H        4.6414001991    3.1965329764   -1.1305566840
H        6.4398137351    0.0987807794    1.2425590183
H        2.6478523903    1.7728015302   -1.4778267962
H        4.4580231469   -1.3292477305    0.8891618653
H        1.7819404746   -0.4277086880   -2.6267468697
H        0.1110438214   -2.4168452454   -2.3273691340
H       -0.5746450102   -1.1362653925   -1.2648269223
H        0.8933965964   -0.8566569317    1.1760435386
H        2.2678458298   -2.0142029361    1.2721776531
H       -0.0797730888   -2.9826095282    0.3233699719
H        1.4346827062   -3.3157509464   -0.5477947264
23   

C        5.6726519504    1.7300691372    0.0829607321
C        4.5442027685    2.2474947642   -0.5591749277
C        5.6769642566    0.4013058353    0.5167880260
C        3.4240556432    1.4345542003   -0.7686015091
C        4.5547444978   -0.4086393394    0.3051472154
C        3.4191384829    0.0935790363   -0.3472131755
C        1.5873640806   -0.9993637906   -1.7196673672
C        2.2247493325   -0.7562099141   -0.5408781989
C        0.3648663052   -1.8375404689   -1.5063029110
C        1.4884616942   -1.4034335867    0.6223556556
C        0.7137048769   -2.4807999646   -0.1533395829
H        6.5409872320    2.3582702173    0.2465130955
H        4.5346851222    3.2788822521   -0.8927437386
H        6.5489900404   -0.0025608874    1.0183629907
H        2.5478905765    1.8418761125   -1.2592788216
H        4.5644522557   -1.4373617637    0.6453918697
H        1.9361766194   -0.6503396474   -2.6848858380
H        0.2117981417   -2.5836158651   -2.2923857684
H       -0.5136748186   -1.1904455202   -1.4141517870
H        0.8067628170   -0.6779740763    1.0776167769
H        2.1545769223   -1.8352246704    1.3755143595
H       -0.1570134411   -2.8673581264    0.3857140647
H        1.4015716618   -3.3109237657   -0.3471253975
23   

C        5.6786811146    1.7211883267    0.0745160822
C        4.4947029366    2.2798189644   -0.4159897092
C        5.7375602988    0.3528944285    0.3556522738
C        3.3731114612    1.4688605389   -0.6258677611
C        4.6136024971   -0.4545407510    0.1436546995
C        3.4231676683    0.0917078029   -0.3552662704
C        1.6764439662   -1.1360911386   -1.7350642099
C        2.2263393877   -0.7610091579   -0.5477672208
C        0.4322625005   -1.9406553999   -1.5172723772
C        1.4050403639   -1.2720187919    0.6261761707
C        0.6766145250   -2.4280291496   -0.0784032010
H        6.5479969014    2.3478067131    0.2389208354
H        4.4436068766    3.3409774181   -0.6315075806
H        6.6526717775   -0.0832228560    0.7396930857
H        2.4539732046    1.9044743138   -0.9998460491
H        4.6608225527   -1.5140354895    0.3664949967
H        2.1005963567   -0.9014034929   -2.7047071211
H        0.3268322912   -2.7702284919   -2.2234209704
H       -0.4431104139   -1.2842846704   -1.5619864226
H        0.7003249270   -0.4992138954    0.9492062231
H        2.0164461245   -1.6168567216    1.4658749630
H       -0.2343423345   -2.7496900623    0.4362327184
H        1.3679404812   -3.2762239163   -0.1276871225
23   

C        5.6882159315    1.7088274996    0.0661809534
C        4.4587913662    2.3004169617   -0.2393963360
C        5.7850284604    0.3174739859    0.1655121294
C        3.3289180960    1.4996500358   -0.4439795983
C        4.6526506655   -0.4796638486   -0.0406414997
C        3.4149758020    0.1014554919   -0.3468766136
C        1.7771296637   -1.2719756776   -1.7288611532
C        2.2139742305   -0.7465139839   -0.5519983296
C        0.5176138553   -2.0564398196   -1.5272347557
C        1.2995216499   -1.1329829327    0.6001637133
C        0.6369837743   -2.3712018742   -0.0256486237
H        6.5640542931    2.3274097469    0.2263404204
H        4.3794686629    3.3787527345   -0.3169791181
H        6.7363352186   -0.1446850625    0.4032872100
H        2.3759573275    1.9590610981   -0.6789797728
H        4.7289410828   -1.5577902223    0.0387039157
H        2.2934122319   -1.1601435103   -2.6755129795
H        0.4725915893   -2.9632336216   -2.1384895617
H       -0.3497931164   -1.4173817778   -1.7230519945
H        0.5668831620   -0.3384855810    0.7737217466
H        1.8410236077   -1.3715092346    1.5209564987
H       -0.3146731301   -2.6417289528    0.4426717202
H        1.3312610721   -3.2113097886    0.0835371674
23   

C        5.6974964567    1.6997656189    0.0678969591
C        4.4409399692    2.3021643415   -0.0452181075
C        5.8121693235    0.3088708181   -0.0166977281
C        3.3015368006    1.5124576115   -0.2394701665
C        4.6702671920   -0.4774284253   -0.2115856896
C        3.4037715480    0.1132658971   -0.3173723764
C        1.8794542041   -1.3990619366   -1.6766119889
C        2.1991330858   -0.7226865353   -0.5393253872
C        0.6037192866   -2.1632797649   -1.5022776587
C        1.1828758464   -0.9847798282    0.5616839568
C        0.5829165771   -2.2967018863    0.0303520000
H        6.5809261383    2.3097708119    0.2190113224
H        4.3483041665    3.3804796980    0.0162051031
H        6.7851655103   -0.1614422135    0.0681262917
H        2.3288073603    1.9812219205   -0.3311432740
H        4.7618701586   -1.5551964420   -0.2786489499
H        2.4917022022   -1.4110395189   -2.5711524988
H        0.6128852255   -3.1364653157   -2.0030358470
H       -0.2394697966   -1.5585137997   -1.8521967295
H        0.4349062273   -0.1857349692    0.5724784528
H        1.6378414626   -1.1053823883    1.5498680024
H       -0.4080607042   -2.5208099170    0.4376512995
H        1.2647474708   -3.1095113072    0.3027058189
23   

C        5.6962327092    1.6879641000    0.0832879162
C        4.4270544743    2.2708860894    0.1408030662
C        5.8216203893    0.3187262857   -0.1691283702
C        3.2858875338    1.4831937795   -0.0508619532
C        4.6781502860   -0.4661202673   -0.3605632375
C        3.3980327187    0.1026655345   -0.2941189738
C        1.9617451685   -1.5216556950   -1.6081928718
C        2.1942385425   -0.7234049831   -0.5290747895
C        0.6626673709   -2.2520470921   -1.4648062416
C        1.0815261581   -0.8594184213    0.4997002853
C        0.5097504188   -2.2183639957    0.0652084109
H        6.5810677144    2.2967262402    0.2311648770
H        4.3258543266    3.3332849340    0.3310319363
H        6.8044847131   -0.1359097570   -0.2180370390
H        2.3041400135    1.9403614706   -0.0135773634
H        4.7809035973   -1.5265815119   -0.5585636288
H        2.6491010174   -1.6413065262   -2.4378490840
H        0.6978060038   -3.2738382874   -1.8555083283
H       -0.1370184774   -1.6820017294   -1.9492727047
H        0.3466364379   -0.0607923835    0.3576155994
H        1.4467034451   -0.8728041437    1.5314704320
H       -0.5155410005   -2.3910038149    0.4074305977
H        1.1539649545   -3.0002300534    0.4816897727
23   

C        5.6998642446    1.6832697595    0.0959291574
C        4.4271317975    2.2239246475    0.2976503175
C        5.8330821804    0.3509417750   -0.3044701865
C        3.2903226880    1.4312886120    0.1007393514
C        4.6942988516   -0.4394510250   -0.5007597086
C        3.4092259711    0.0860422064   -0.2939578817
C        2.0303974681   -1.6369331975   -1.5399147690
C        2.2093248496   -0.7377691223   -0.5305899238
C        0.7053150873   -2.3237810962   -1.4210441012
C        1.0170345369   -0.7455788117    0.4153739512
C        0.4445514193   -2.1319632754    0.0817970256
H        6.5811635851    2.2962713647    0.2473676575
H        4.3194025379    3.2582448695    0.6037538161
H        6.8187543186   -0.0711047149   -0.4639618088
H        2.3071776554    1.8613278657    0.2506039783
H        4.8084566239   -1.4714031139   -0.8105024286
H        2.7672512958   -1.8535606814   -2.3047151566
H        0.7411894002   -3.3804752968   -1.7039882195
H       -0.0422486680   -1.7905818950   -2.0177143989
H        0.3153245682    0.0458340017    0.1335466455
H        1.3009069901   -0.6568043062    1.4687825468
H       -0.6065255821   -2.2507050293    0.3633473127
H        1.0382027809   -2.8776958865    0.6216007245
23   

C        5.6957665316    1.6864314655    0.1002355310
C        4.4269911532    2.1640931800    0.4370852765
C        5.8339137449    0.4048956002   -0.4384823292
C        3.2988524127    1.3603006975    0.2353977367
C        4.7042806667   -0.3972691612   -0.6394916283
C        3.4209505649    0.0658961469   -0.3031922162
C        2.0803932317   -1.7493920810   -1.4652918448
C        2.2279696074   -0.7665864348   -0.5296377703
C        0.7308219025   -2.3906641089   -1.3693313793
C        0.9755226386   -0.6562886704    0.3280681760
C        0.3826399628   -2.0529660460    0.0884759481
H        6.5700282223    2.3085062319    0.2554379961
H        4.3151401495    3.1590580337    0.8526179754
H        6.8168949591    0.0306150307   -0.7007431712
H        2.3217757557    1.7500388007    0.4939964832
H        4.8304774310   -1.3902621326   -1.0529904394
H        2.8474259730   -2.0512713277   -2.1686096821
H        0.7531218600   -3.4698140720   -1.5507231439
H        0.0378651781   -1.8984516003   -2.0597647589
H        0.3183757239    0.1215126138   -0.0738068564
H        1.1898980868   -0.4765285824    1.3863272534
H       -0.6871875421   -2.1185326137    0.3105137475
H        0.9182954599   -2.7589581103    0.7323839719
23   

C        5.6947102444    1.6944869883    0.0996287298
C        4.4420016416    2.0987751595    0.5654490669
C        5.8244024350    0.4753480964   -0.5686759346
C        3.3210436618    1.2850893368    0.3627961628
C        4.7026071191   -0.3373340107   -0.7707952432
C        3.4325919138    0.0533148632   -0.3090337852
C        2.1246086288   -1.8513145947   -1.3733479643
C        2.2461631201   -0.7920407375   -0.5187855407
C        0.7528736064   -2.4478936252   -1.3107627303
C        0.9427880510   -0.5740788432    0.2370283480
C        0.3210448740   -1.9698221763    0.0825946224
H        6.5629337689    2.3246647307    0.2560638645
H        4.3365644767    3.0453532660    1.0831656834
H        6.7954047017    0.1569147301   -0.9304494946
H        2.3615435019    1.6294491140    0.7277218189
H        4.8315036008   -1.2808309855   -1.2853494238
H        2.9166706685   -2.2348103959   -2.0047712140
H        0.7540089710   -3.5393806486   -1.3922888765
H        0.1215463196   -2.0044922004   -2.0879108885
H        0.3394361422    0.1824514289   -0.2749114273
H        1.0873835548   -0.3116175661    1.2897345898
H       -0.7626259107   -1.9862946805    0.2359539123
H        0.7898098478   -2.6283934591    0.8218839331
23   

C        5.6966325881    1.7040460625    0.0909192074
C        4.4764698746    2.0273538142    0.6868258952
C        5.7967987016    0.5600860058   -0.7024796579
C        3.3582652788    1.2080694924    0.4905651557
C        4.6784587433   -0.2586393133   -0.8984138287
C        3.4395211056    0.0501590050   -0.3058373391
C        2.1688977875   -1.9405405121   -1.2601454299
C        2.2580617444   -0.8081433185   -0.4991277687
C        0.7812407284   -2.5016044623   -1.2473932955
C        0.9101780687   -0.4979625792    0.1382523226
C        0.2601897570   -1.8871802625    0.0578784948
H        6.5621828670    2.3389146351    0.2431765636
H        4.3939037453    2.9159592534    1.3022530987
H        6.7422755393    0.3049226814   -1.1673397908
H        2.4306475780    1.4995917517    0.9649254805
H        4.7885357860   -1.1392111223   -1.5174059100
H        2.9906268139   -2.3993085822   -1.7956772357
H        0.7592966701   -3.5957574666   -1.2278010371
H        0.2213518385   -2.1206792052   -2.1079129623
H        0.3672643200    0.2268512454   -0.4768344431
H        0.9769297599   -0.1591161205    1.1762647464
H       -0.8319634581   -1.8650189922    0.1275646829
H        0.6515389376   -2.4866163023    0.8870628828
23   

C        5.7164752844    1.7159928674    0.0826736419
C        4.5492211932    1.9500214209    0.8117170655
C        5.7607641474    0.6626705352   -0.8320885313
C        3.4279244986    1.1318844830    0.6278450680
C        4.6395812863   -0.1549099982   -1.0154469136
C        3.4543747442    0.0641956737   -0.2890751920
C        2.2240235506   -1.9976766566   -1.1291211563
C        2.2742189628   -0.7995502354   -0.4736592417
C        0.8304801091   -2.5419232806   -1.1694243205
C        0.8901452267   -0.4153842120    0.0318861634
C        0.2218101219   -1.7987879660    0.0266857506
H        6.5842537798    2.3499113204    0.2259456412
H        4.5108436348    2.7672189074    1.5229925272
H        6.6641599475    0.4782352795   -1.4021608356
H        2.5469704874    1.3496164640    1.2156750302
H        4.6994109066   -0.9602103659   -1.7361272314
H        3.0796865520   -2.5121322094   -1.5490579737
H        0.7888463143   -3.6287491618   -1.0463334732
H        0.3440995078   -2.2412928046   -2.1032531389
H        0.4087107617    0.2570174393   -0.6853690623
H        0.8763091867    0.0131644787    1.0372498802
H       -0.8718249762   -1.7570933731    0.0070815609
H        0.5349166121   -2.3223570853    0.9365121826
23   

C        5.7118975548    1.7121992720    0.0766810017
C        4.6054937663    1.8531697104    0.9172292847
C        5.6921553884    0.7545580612   -0.9395784036
C        3.4807989648    1.0381480536    0.7413303565
C        4.5669263418   -0.0595837860   -1.1139883248
C        3.4431219064    0.0702795317   -0.2797042664
C        2.2558960383   -2.0535591656   -0.9952803113
C        2.2651530760   -0.7983991961   -0.4587912149
C        0.8650233509   -2.6009494555   -1.0760823568
C        0.8517030630   -0.3605040485   -0.1013692837
C        0.1783752105   -1.7384701321   -0.0069847315
H        6.5830189611    2.3429596796    0.2134237116
H        4.6184488086    2.5928710580    1.7095940695
H        6.5484435879    0.6420619818   -1.5947341658
H        2.6448113149    1.1632980852    1.4166938762
H        4.5669122208   -0.7921816025   -1.9117030910
H        3.1419069662   -2.6003272715   -1.2958673744
H        0.8086456298   -3.6693711744   -0.8451188682
H        0.4462687404   -2.3988293927   -2.0674430428
H        0.4301375417    0.2264812268   -0.9236017332
H        0.7707173093    0.1855118784    0.8419769568
H       -0.9110120057   -1.7013395160   -0.1070755312
H        0.4251529489   -2.1631943793    0.9720988806
23   

C        5.7102573879    1.7097852804    0.0786289213
C        4.6683543761    1.7506770941    1.0088847219
C        5.6256653231    0.8521297127   -1.0213792882
C        3.5426793145    0.9364979462    0.8367961046
C        4.4989254035    0.0387577016   -1.1909843666
C        3.4396109017    0.0748100277   -0.2706976421
C        2.2809289380   -2.1018315700   -0.8545086888
C        2.2654581360   -0.8032193318   -0.4396165551
C        0.8917700363   -2.6474736180   -0.9747091491
C        0.8376129369   -0.3191486278   -0.2340058953
C        0.1431671047   -1.6772055472   -0.0466898950
H        6.5827103727    2.3395330948    0.2114448988
H        4.7329037639    2.4104372422    1.8666074489
H        6.4329893529    0.8159741352   -1.7438962951
H        2.7488588993    0.9691193558    1.5728863964
H        4.4422656364   -0.6220425813   -2.0477995391
H        3.1830127605   -2.6725606148   -1.0427756940
H        0.8071917252   -3.6868331278   -0.6421491973
H        0.5435359395   -2.5445857741   -2.0077516714
H        0.4843390506    0.1810870748   -1.1413525497
H        0.7095817952    0.3287860193    0.6378476083
H       -0.9363402982   -1.6452602690   -0.2250136005
H        0.3177813360   -2.0013019606    0.9849793319
23   

C        5.7080474700    1.7093105712    0.0828040864
C        4.7419107714    1.6383706918    1.0905448426
C        5.5476851085    0.9624674303   -1.0880245533
C        3.6157112069    0.8238209809    0.9242837420
C        4.4202852379    0.1484860317   -1.2510662421
C        3.4370423665    0.0768424907   -0.2538317657
C        2.2890256319   -2.1396113662   -0.7003019613
C        2.2632693699   -0.8078743272   -0.4153209700
C        0.9027048845   -2.6802911480   -0.8684983721
C        0.8345858116   -0.2877179694   -0.3678701500
C        0.1042845141   -1.6134470790   -0.1003264567
H        6.5809829726    2.3394870978    0.2102950496
H        4.8656468644    2.2114952678    2.0023231557
H        6.2969203375    1.0122181291   -1.8698689271
H        2.8743660741    0.7647151765    1.7123545555
H        4.3019285002   -0.4307722556   -2.1592567621
H        3.1949558054   -2.7309215106   -0.7695476629
H        0.7757433919   -3.6799750146   -0.4412948301
H        0.6330301086   -2.6786245571   -1.9297810693
H        0.5589167678    0.1246730362   -1.3436824291
H        0.6635198246    0.4461258361    0.4256497750
H       -0.9583379777   -1.5884588779   -0.3617874226
H        0.1961434105   -1.8344726971    0.9685710618
23   

C        5.7069290262    1.7081680077    0.0888760368
C        4.8291863173    1.5055782078    1.1580361997
C        5.4612525165    1.0878991952   -1.1398789121
C        3.7061961241    0.6858448357    0.9954004053
C        4.3372212955    0.2683407538   -1.2984547344
C        3.4445102499    0.0644123029   -0.2375125344
C        2.2777259804   -2.1741669821   -0.5293905744
C        2.2654146535   -0.8187333144   -0.4041561714
C        0.8937090328   -2.7039255446   -0.7451381853
C        0.8530743617   -0.2675306500   -0.5254935841
C        0.0687383287   -1.5404393855   -0.1680212974
H        6.5769801553    2.3430029788    0.2129138437
H        5.0182861689    1.9815800069    2.1134333856
H        6.1412377167    1.2405669083   -1.9701941137
H        3.0293937559    0.5258010801    1.8264957036
H        4.1504407496   -0.2133263367   -2.2511162918
H        3.1703036497   -2.7850116357   -0.4560371389
H        0.7062655843   -3.6454592875   -0.2194578229
H        0.7064482601   -2.8187647167   -1.8179080376
H        0.6621124333    0.0370325267   -1.5594068417
H        0.6478902270    0.5549316288    0.1668147298
H       -0.9699586853   -1.5259085716   -0.5130640141
H        0.0730875868   -1.6388114161    0.9229015432
23   

C        5.7076550590    1.7143762365    0.0998449962
C        4.9332282091    1.3507959342    1.2056500280
C        5.3667725584    1.2452107491   -1.1724370842
C        3.8195270993    0.5196815908    1.0366584415
C        4.2524012148    0.4136894162   -1.3367531859
C        3.4681396699    0.0426152271   -0.2364538470
C        2.2543582065   -2.1909835855   -0.3551128830
C        2.2821843361   -0.8317888254   -0.4169077549
C        0.8711598503   -2.7076317501   -0.6045377911
C        0.9008259448   -0.2623437947   -0.7007623089
C        0.0502639192   -1.4577799153   -0.2411739491
H        6.5699810227    2.3587580370    0.2285087333
H        5.1939934659    1.7125110387    2.1937189450
H        5.9644416198    1.5255283208   -2.0322791009
H        3.2189089500    0.2392799349    1.8940301127
H        3.9891362983    0.0520730883   -2.3238506288
H        3.1147822637   -2.8085090599   -0.1237219810
H        0.6138935784   -3.5685486351    0.0204250088
H        0.7556198900   -2.9542837625   -1.6651670905
H        0.7866320843   -0.0864628352   -1.7750667098
H        0.6825121257    0.6468423168   -0.1318153460
H       -0.9614895560   -1.4609765479   -0.6589080402
H       -0.0228623785   -1.4141755818    0.8508318950
23   

C        5.6952039788    1.7204547548    0.1125924906
C        5.0283489676    1.1930279479    1.2223411604
C        5.2568757243    1.4042074439   -1.1768126598
C        3.9263489223    0.3491941337    1.0401660595
C        4.1545989481    0.5593483604   -1.3541526759
C        3.4830149147    0.0170012399   -0.2500041438
C        2.2156160903   -2.1860270109   -0.1936368043
C        2.2960650298   -0.8501953583   -0.4424731742
C        0.8358372175   -2.6976550594   -0.4700878692
C        0.9529046346   -0.2895329777   -0.8851059800
C        0.0360891350   -1.3908396310   -0.3282700148
H        6.5481153065    2.3751555459    0.2515282728
H        5.3622246714    1.4391090393    2.2238828378
H        5.7687820912    1.8145042359   -2.0397867041
H        3.4059325743   -0.0532428916    1.9013626945
H        3.8141894412    0.3198664244   -2.3547198977
H        3.0328489982   -2.7845860589    0.1924127957
H        0.5096484881   -3.4625901381    0.2415367847
H        0.7818587757   -3.0781357389   -1.4955010469
H        0.9082700367   -0.2555165978   -1.9782181650
H        0.7318447528    0.6927076828   -0.4556837235
H       -0.9475808236   -1.4244529342   -0.8072416674
H       -0.1023858628   -1.2001113111    0.7414031281
23   

C        5.6866609832    1.7274126485    0.1228401433
C        5.1242538653    1.0570958605    1.2129133671
C        5.1474464471    1.5513405381   -1.1548352918
C        4.0265358129    0.2095543460    1.0225660558
C        4.0498157147    0.7024180480   -1.3411669584
C        3.4840031792    0.0134044768   -0.2588623392
C        2.1737955682   -2.1484942601   -0.0572688181
C        2.3008388837   -0.8513616009   -0.4529803963
C        0.8051895420   -2.6710302847   -0.3663795257
C        0.9990084558   -0.3301332469   -1.0435278310
C        0.0254192556   -1.3465281588   -0.4257404712
H        6.5362748641    2.3849380826    0.2684772427
H        5.5353864638    1.1958196698    2.2063114100
H        5.5775852830    2.0736477887   -2.0017659933
H        3.5867036153   -0.3003299732    1.8716160134
H        3.6327349111    0.5734244834   -2.3329510940
H        2.9484377749   -2.7092203833    0.4532263094
H        0.4179764497   -3.3457923877    0.4034992026
H        0.8102508566   -3.1647594857   -1.3437966663
H        1.0237989017   -0.4230812899   -2.1338473810
H        0.7707576837    0.6981537229   -0.7457978372
H       -0.9263700031   -1.4215214171   -0.9611019660
H       -0.1762494547   -1.0322731443    0.6040028186
23   

C        5.6791240682    1.7308084419    0.1299979244
C        5.2140489996    0.9462453184    1.1886838627
C        5.0406800318    1.6704298140   -1.1116519968
C        4.1142715815    0.1004074410    1.0029612280
C        3.9412293892    0.8231543518   -1.2942997135
C        3.4691876097    0.0196370864   -0.2447253227
C        2.1207455082   -2.1023965168    0.0732743581
C        2.2924859941   -0.8486042713   -0.4338548388
C        0.7717342595   -2.6464407248   -0.2815845239
C        1.0423499095   -0.3878491906   -1.1694172031
C        0.0143095904   -1.3308727366   -0.5251178551
H        6.5305298670    2.3867299116    0.2723722265
H        5.7025732518    0.9947588482    2.1551749827
H        5.3959731931    2.2807012264   -1.9341211022
H        3.7533687618   -0.4957215075    1.8325859495
H        3.4525115946    0.7852774918   -2.2605724026
H        2.8495122701   -2.6196726306    0.6865731102
H        0.3227264942   -3.2408439178    0.5203101875
H        0.8405763250   -3.2332557875   -1.2035698756
H        1.1451838691   -0.5933742739   -2.2396242551
H        0.8031050843    0.6662390261   -0.9967270909
H       -0.8983872540   -1.4532100658   -1.1168517350
H       -0.2548404427   -0.9148144326    0.4518072501
23   

C        5.7053890675    1.7361097548    0.0561663139
C        5.0121521703    1.7604498671   -1.1560066104
C        5.2388710133    0.9408608069    1.1052956603
C        3.8531983778    0.9920259600   -1.3164087780
C        4.0793388477    0.1735472980    0.9425378810
C        3.3636531262    0.1897129285   -0.2672796349
C        1.1060796243   -0.3840158382   -1.2742334838
C        2.1527460967   -0.6308468774   -0.4338707671
C        0.0716524147   -1.4625527196   -1.1820704981
C        1.9406126267   -1.9410672215    0.3108802689
C        0.9369047939   -2.6106624428   -0.6399227027
H        6.6031903702    2.3307469713    0.1816854984
H        5.3730965344    2.3727356359   -1.9745063379
H        5.7748364611    0.9177993981    2.0472839138
H        3.3341622656    1.0143162121   -2.2667160202
H        3.7316741179   -0.4342153563    1.7690960098
H        1.0415513325    0.4641908224   -1.9454585589
H       -0.3830472794   -1.7065188792   -2.1473151233
H       -0.6965281019   -1.1767848209   -0.4558555410
H        1.4836556321   -1.7435146050    1.2858074026
H        2.8569183120   -2.5294583149    0.4220964724
H        0.3580001518   -3.4128203458   -0.1713699722
H        1.5006436267   -3.0300591625   -1.4803288676
23   

C        5.7041759704    1.7435234446    0.0606055782
C        4.9430441336    1.8737048807   -1.1018906558
C        5.3132040613    0.8334915817    1.0438345767
C        3.7936892227    1.0947467247   -1.2794182368
C        4.1632556828    0.0556860377    0.8643857711
C        3.3793782981    0.1687438242   -0.3003233518
C        1.1697806698   -0.4687913808   -1.3866712981
C        2.1709597129   -0.6530664534   -0.4754842674
C        0.1026815632   -1.5088866554   -1.2416236134
C        1.8821376580   -1.8757538466    0.3841812108
C        0.9060429191   -2.6149163627   -0.5429368816
H        6.5945050883    2.3463961722    0.1993763750
H        5.2429776643    2.5781404333   -1.8693078133
H        5.8999776276    0.7298257591    1.9494336094
H        3.2258674876    1.2109177264   -2.1936032786
H        3.8822738975   -0.6349087725    1.6496144258
H        1.1487773045    0.3117068008   -2.1373734691
H       -0.3097899946   -1.8390399348   -2.2001918926
H       -0.6926398699   -1.1334925286   -0.5891758690
H        1.3862580914   -1.5687362460    1.3106196146
H        2.7703796692   -2.4785409150    0.5978612098
H        0.2820789112   -3.3504929368   -0.0255089063
H        1.4969756850   -3.1318751851   -1.3068405550
23   

C        5.6942940535    1.7499713964    0.0641458275
C        4.8542905901    1.9846063474   -1.0241078279
C        5.3886118107    0.7274360820    0.9619915748
C        3.7135819957    1.1960431672   -1.2138379133
C        4.2471289794   -0.0599003455    0.7702995303
C        3.3840991549    0.1506362763   -0.3256557798
C        1.2336871550   -0.5614679110   -1.4899334970
C        2.1803592564   -0.6780998488   -0.5108310367
C        0.1310737522   -1.5570691673   -1.3065560120
C        1.8152727150   -1.8086268234    0.4413892663
C        0.8611419646   -2.6071632868   -0.4592346818
H        6.5781476730    2.3600062281    0.2126662291
H        5.0848189792    2.7796088426   -1.7240736152
H        6.0354461210    0.5430832788    1.8121711865
H        3.0827378903    1.4058819385   -2.0675624527
H        4.0439014387   -0.8353317190    1.4970274864
H        1.2700728300    0.1423775615   -2.3120552668
H       -0.2374117194   -1.9702474534   -2.2507705840
H       -0.6876967411   -1.1005332501   -0.7406489247
H        1.2888400364   -1.4043418140    1.3119321399
H        2.6674689595   -2.4219046911    0.7488388663
H        0.1882579475   -3.2700947805    0.0938463588
H        1.4719905121   -3.2143113342   -1.1361079537
