66

C     -4.30597    2.93306    4.40299
C     -3.98616    1.33077    6.17430
C     -0.61032    0.18947    0.97428
C     -4.63799   -1.33302   -0.55051
C     -6.51989   -2.00497    0.80458
C     -1.58770   -0.77910    1.15524
C     -4.57389    3.93414    5.34167
C     -4.25398    2.31467    7.11851
C     -5.49914   -0.81956   -1.52221
C     -7.39996   -1.50354   -0.15958
C     -1.54099    1.60126    2.71262
C     -2.56132    0.64746    2.90154
C     -4.01633    1.61668    4.79342
C     -3.69366    0.58968    3.77966
C     -5.13208   -1.92320    0.62252
C     -0.57216    1.38555    1.73990
C     -2.57518   -0.54239    2.12636
C     -4.54963    3.62666    6.71051
C     -6.87000   -0.91601   -1.30325
C     -4.35573   -0.60694    3.50696
C     -5.59041   -1.14859    4.11420
C     -2.83894    1.87124   -3.39131
C     -2.27906    0.82157   -2.45398
C     -1.43949    2.01931   -2.82990
C     -5.34117    6.64101    8.64780
C      0.46068    2.44401    1.42268
C     -4.18062   -2.41543    1.69695
C     -1.17819    3.06393   -1.77795
C     -5.11143    5.87312    7.35798
C     -0.01114    3.36257    0.28966
N     -3.65550   -1.31076    2.51810
O     -5.96140   -2.30475    3.99650
O     -6.34995   -0.28147    4.83036
O     -4.79598    4.51962    7.71136
O     -0.18251    2.57763   -0.88267
F     -7.72009   -0.42120   -2.24241
H     -4.33551    3.17523    3.34392
H     -3.74868    0.32283    6.50323
H      0.14436    0.04177    0.20805
H     -3.56749   -1.26431   -0.71157
H     -6.91501   -2.45499    1.71013
H     -1.57417   -1.68510    0.55741
H     -4.80281    4.93531    4.99531
H     -4.23443    2.09223    8.18125
H     -5.12083   -0.35396   -2.42711
H     -8.47664   -1.56090   -0.03150
H     -1.52631    2.50514    3.31792
H     -2.94063    1.62233   -4.44351
H     -3.61456    2.53071   -3.01079
H     -2.65581    0.79143   -1.43658
H     -2.00755   -0.14631   -2.86599
H     -0.61590    1.84364   -3.51756
H     -6.16876    6.20486    9.21436
H     -4.44430    6.62212    9.27349
H     -5.58582    7.68376    8.42166
H      0.66294    3.06204    2.30487
H      1.40838    1.98186    1.12589
H     -4.67326   -3.12332    2.35801
H     -3.31604   -2.91188    1.25154
H     -2.10669    3.26698   -1.22121
H     -0.85169    4.01097   -2.23728
H     -4.28076    6.30688    6.78561
H     -6.00981    5.88833    6.72693
H     -0.96458    3.83032    0.57731
H      0.71985    4.16637    0.10955
H     -5.93298    0.60149    4.86200
