46

C     -3.92724   -1.67678    3.75703
C      2.74445   -0.24980    0.20185
C     -3.54783   -0.66007    2.87810
C      1.59144    0.39249    0.65078
C     -3.71763   -1.54202    5.13288
C      1.03342   -1.64042    1.84511
C      4.30629   -3.35488   -0.76333
C     -2.72071    0.64417    4.73781
C      5.51482   -1.42716   -0.01251
C      6.64460   -2.97630   -1.26730
C      3.07252   -1.57345    0.54165
C      2.19802   -2.29146    1.40074
C      4.30548   -2.14047   -0.06255
C     -2.93744    0.50920    3.35905
C      0.72201   -0.32910    1.48155
C      5.48919   -3.74882   -1.36202
C     -3.11935   -0.37296    5.60489
C      2.41759   -3.65709    1.89108
C     -1.11489    1.37322    1.72039
C     -3.49031    2.29050    1.54862
C     -2.82103    3.01835    2.67957
C     -2.46042    1.56660    2.40897
N      3.57325   -4.35219    1.84474
N      6.65838   -1.82055   -0.59293
N      1.43882   -4.36530    2.50189
N      3.29289   -5.52092    2.44252
N      2.01530   -5.52846    2.83199
N     -0.48890    0.19634    2.00316
O     -0.67217    2.24260    0.96407
F      5.53415   -4.91204   -2.07196
Cl    -2.85299   -0.17944    7.33375
H     -4.37997   -2.58703    3.37371
H      3.40738    0.28935   -0.47028
H     -3.70799   -0.77405    1.80923
H      1.35910    1.40687    0.35793
H     -4.00324   -2.32915    5.82315
H      0.37444   -2.20560    2.49971
H      3.41968   -3.97424   -0.83096
H     -2.23693    1.53472    5.12674
H      5.56028   -0.49326    0.54482
H      7.56734   -3.30576   -1.74235
H     -4.52568    1.98778    1.67393
H     -3.17891    2.53997    0.53988
H     -2.06488    3.75167    2.42105
H     -3.40393    3.22054    3.57307
H     -0.97444   -0.43264    2.63065
