67

C    -11.65158   -1.87831   -2.13603
C    -10.83536   -3.45127   -0.45962
C     -9.81894   -3.98550    0.32972
C     -8.26414   -2.37041   -0.59807
C    -10.57346   -2.38433   -1.33254
C     -9.27226   -1.84321   -1.39581
C     -8.53604   -3.44534    0.25129
C     -7.59886   -4.07141    2.46648
C     -6.24941   -4.43098    0.61407
C      1.72000    0.64522    0.75059
C      0.15087   -1.00686    1.89074
C     -0.19465   -0.34562   -0.42622
C      0.03605   -2.48630    1.51304
C     -0.30089   -1.79995   -0.86454
C     -6.27892   -4.66199    2.96842
C     -6.55383   -6.03229    3.60909
C     -5.61327   -3.69383    3.95425
C      4.31190    1.87708    3.05532
C      2.49283    0.77801    2.06458
C     -3.13715   -4.30344    1.22722
C     -1.78027   -4.93448    0.87409
C     -4.19364   -5.35520    1.60817
C     -0.98397   -4.10805   -0.13394
C     -8.96137   -0.68798   -2.32414
N    -12.55045   -1.49830   -2.77035
N     -7.49599   -3.97264    1.07493
N     -5.52330   -4.78019    1.70920
N      0.63002   -0.23524    0.76372
N     -0.81956   -2.65664    0.27810
O     -8.55230   -3.75509    3.14396
O      2.01350    1.25190   -0.26066
O      3.55128    1.66235    1.86864
F     -7.66149   -0.30875   -2.22261
F     -9.18171   -1.01546   -3.61491
F     -9.71566    0.39519   -2.04091
S     -5.77765   -4.54643   -0.97619
H    -11.83842   -3.86137   -0.40999
H    -10.02544   -4.80997    1.00319
H     -7.26736   -1.95279   -0.64334
H     -0.82869   -0.63382    2.22974
H      0.82792   -0.93442    2.74068
H      0.26855    0.24066   -1.22153
H     -1.19667    0.07105   -0.24183
H      1.01454   -2.90679    1.27147
H     -0.42072   -3.06574    2.31613
H     -0.99582   -1.92122   -1.69808
H      0.67480   -2.20451   -1.14139
H     -5.63387   -6.46967    4.00773
H     -6.98514   -6.72542    2.88158
H     -7.25893   -5.90739    4.43420
H     -4.66746   -4.10829    4.31798
H     -6.27159   -3.53717    4.81180
H     -5.42169   -2.72474    3.48410
H      5.10431    2.57845    2.79268
H      4.76113    0.94083    3.41708
H      3.69245    2.31111    3.85302
H      2.85567   -0.21812    2.37955
H      1.80433    1.13564    2.85188
H     -3.53587   -3.77482    0.35385
H     -3.04240   -3.58061    2.04810
H     -1.18937   -5.14899    1.77015
H     -1.94190   -5.90067    0.38370
H     -3.94938   -5.82388    2.56394
H     -4.21010   -6.13804    0.84313
H     -1.50847   -4.08452   -1.09200
H      0.02176   -4.50190   -0.29689
H     -1.75905   -2.30975    0.50781
