24   

C       -0.6266502097    1.2028809907   -0.0577435089
C        0.5635715259    0.6605188954    0.3739303750
C        1.5239331323    1.4391078584    1.2314323659
C       -1.5719741726    0.4568074374   -0.9496915615
C       -0.1021151603   -1.5102842563   -0.6668515887
C        3.6711414197    1.7676147443    2.4032453976
C        3.6130881962    0.3968789186    0.3270210501
N        0.8921958352   -0.6570094359   -0.0218197457
N       -0.8539482864   -0.6587721052   -1.5823057109
N        2.8787597484    1.0942235168    1.3782649817
O        1.1567470494    2.4617990752    1.8123676603
H       -0.8634847913    2.2256447403    0.2111901707
H       -2.4086410837    0.0769283410   -0.3542690423
H       -1.9692508257    1.1316263209   -1.7149571850
H        0.3943132587   -2.3101965758   -1.2249863462
H       -0.7686141193   -1.9526107142    0.0815567766
H        4.6112730418    1.2340831702    2.5750961173
H        3.1254834935    1.7894597116    3.3525182732
H        3.8944052997    2.7945127332    2.0967119694
H        4.6047214757    0.8432753225    0.2010447121
H        3.1076077847    0.4924985373   -0.6395132688
H        3.7341834506   -0.6611191024    0.5771702151
H        1.7502045564   -1.0796824216    0.3129339359
H       -1.4588529827   -1.2016574544   -2.1891489935
24   

C       -0.5837062344    1.1872411078   -0.0963864475
C        0.5506660577    0.6066449144    0.4227074343
C        1.4836639374    1.3522963927    1.3368038258
C       -1.5004125583    0.4544274698   -1.0285297259
C       -0.1435238468   -1.5662041824   -0.5864168149
C        3.6792718263    1.7440067044    2.3984602727
C        3.5597473920    0.4759729484    0.2530450492
N        0.8437611481   -0.7366878973    0.0991048189
N       -0.7935591736   -0.7127986557   -1.5762689379
N        2.8633409873    1.0953341493    1.3769329906
O        1.0593535571    2.2477287168    2.0704236607
H       -0.7932768672    2.2242336767    0.1379843530
H       -2.3919497333    0.1318565754   -0.4808150945
H       -1.8135855303    1.1200996879   -1.8394628338
H        0.3516742043   -2.4050533751   -1.0853425119
H       -0.8777988275   -1.9541224334    0.1279834606
H        4.6608184016    1.2647088671    2.4681732092
H        3.1998814996    1.6598232922    3.3794563270
H        3.8163594340    2.8030096866    2.1577902745
H        4.5067400971    0.9925130033    0.0667526085
H        2.9764934265    0.5554983706   -0.6701502750
H        3.7678657588   -0.5773508619    0.4623108674
H        1.6624177719   -1.1813395525    0.4995114784
H       -1.3819599602   -1.2493976736   -2.2046053527
24   

C       -0.5322689159    1.1806805500   -0.1305681831
C        0.5351287807    0.5561018168    0.4694374941
C        1.4516438287    1.2601362917    1.4344762790
C       -1.4249230675    0.4668982438   -1.1002478826
C       -0.2018482419   -1.6070999737   -0.5226981317
C        3.6835138466    1.7175069192    2.3953838634
C        3.4983037376    0.5576455777    0.1876910785
N        0.7783466581   -0.8100112868    0.2099143187
N       -0.7435632659   -0.7482227004   -1.5725872664
N        2.8433800027    1.1009216166    1.3744505891
O        0.9954407656    2.0015302817    2.3081198512
H       -0.7030589957    2.2315092578    0.0700668973
H       -2.3635225403    0.2026836677   -0.6021035392
H       -1.6538669611    1.1236003623   -1.9458921051
H        0.2827559573   -2.4808586970   -0.9693895461
H       -0.9995859408   -1.9417730285    0.1493225708
H        4.6861294134    1.2786067161    2.3833712767
H        3.2616064561    1.5493749500    3.3918176571
H        3.7645272901    2.7946333002    2.2185997173
H        4.3952362454    1.1399466142   -0.0459817545
H        2.8497264057    0.6170816061   -0.6923322022
H        3.7854297984   -0.4850953324    0.3517799078
H        1.5503663262   -1.2806969943    0.6698518011
H       -1.3170986779   -1.2725910362   -2.2246023750
24   

C       -0.3973504418    1.1799696476   -0.0983907913
C        0.5973904712    0.5102105026    0.5713560688
C        1.5252271129    1.1715821667    1.5594084122
C       -1.2848845048    0.4847780189   -1.0862919621
C       -0.2107366099   -1.6371638432   -0.3898792130
C        3.7978065184    1.7154788368    2.3807184230
C        3.5029081861    0.6642221740    0.1268932862
N        0.7736027556   -0.8744890383    0.3732151711
N       -0.6512673272   -0.7807178182   -1.4892361448
N        2.9135208161    1.1299604973    1.3793669434
O        1.0793556222    1.7413016975    2.5588715580
H       -0.5108548776    2.2455158853    0.0588796470
H       -2.2579684100    0.2880980155   -0.6243499465
H       -1.4388818024    1.1247516932   -1.9612143037
H        0.2467853004   -2.5481654760   -0.7881282135
H       -1.0587801889   -1.9093462517    0.2478716052
H        4.7995304969    1.2809025121    2.3053265570
H        3.4281780447    1.5128705981    3.3913058717
H        3.8674004512    2.7980780046    2.2361615944
H        4.3447772542    1.3052385700   -0.1530845317
H        2.7864573829    0.7082373439   -0.6996392326
H        3.8591979755   -0.3647623678    0.2323939540
H        1.4936353748   -1.3719542934    0.8868172700
H       -1.2214770631   -1.2928342682   -2.1538334649
24   

C       -0.3433199110    1.1944514443   -0.1754033865
C        0.5423535814    0.4744974475    0.5876943028
C        1.4425935155    1.0764774920    1.6407896329
C       -1.1877474546    0.5324185201   -1.2222176302
C       -0.2965350753   -1.6374325925   -0.4152786361
C        3.6977991073    1.7447590700    2.4393462582
C        3.3985933861    0.8547440949    0.1166269920
N        0.6595581958   -0.9197631946    0.4234904522
N       -0.5961482001   -0.7731919852   -1.5564048149
N        2.8178268505    1.1988965255    1.4115541398
O        0.9821644344    1.4307930642    2.7300846279
H       -0.3992513252    2.2682649841   -0.0479475792
H       -2.2037593485    0.3972316583   -0.8368285680
H       -1.2361609471    1.1645156644   -2.1148645870
H        0.1426634656   -2.5767820242   -0.7654213547
H       -1.2090546136   -1.8556500546    0.1501275583
H        4.6843633380    1.2746061354    2.3799107666
H        3.3066596242    1.5502621510    3.4431504186
H        3.8083096820    2.8252392858    2.3056651332
H        4.2101090584    1.5471309807   -0.1281852123
H        2.6642628179    0.9302750538   -0.6915596268
H        3.7956396937   -0.1646684667    0.1378601450
H        1.2884588096   -1.4485571640    1.0194397605
H       -1.1378628236   -1.2636011809   -2.2600873314
24   

C       -0.2040954138    1.2081129084   -0.2401005098
C        0.5522816298    0.4229041400    0.5941232054
C        1.4628698054    0.9444369718    1.6808367798
C       -1.0528598758    0.6019961317   -1.3168780128
C       -0.4132942862   -1.6233784265   -0.4206803766
C        3.6836176398    1.7564210142    2.4460488606
C        3.3399067341    1.0800666480    0.0567830379
N        0.5570680834   -0.9771255633    0.4585257479
N       -0.5713650624   -0.7613561798   -1.5923396749
N        2.7981004165    1.2529646130    1.4013436039
O        1.0346027847    1.0868141815    2.8307007552
H       -0.1551773617    2.2853494669   -0.1441125379
H       -2.0952517100    0.5714808873   -0.9825681630
H       -0.9967551029    1.2132693221   -2.2234025171
H       -0.0432778187   -2.6060357758   -0.7294936363
H       -1.3711330621   -1.7460227963    0.0965547646
H        4.2644599046    0.9346592901    2.8758085808
H        3.1206835075    2.2470297005    3.2465239204
H        4.3701225015    2.5011505218    2.0312978831
H        3.2136364989    1.9990258950   -0.5238384832
H        2.8529665362    0.2557437894   -0.4735699597
H        4.4059218985    0.8374131662    0.1078649582
H        1.0676038841   -1.5433998033    1.1293558322
H       -1.1196770394   -1.2167183878   -2.3142266007
24   

C       -0.0344710216    1.1982773360   -0.2747239539
C        0.6058837515    0.3650198598    0.6095581290
C        1.5434420256    0.8131615410    1.7034987796
C       -0.9245248924    0.6503371504   -1.3493824566
C       -0.5491454831   -1.5987749021   -0.3633448666
C        3.6994743399    1.7720475142    2.4647462676
C        3.3263062319    1.2684519971    0.0350055506
N        0.4682066654   -1.0294209141    0.5154659498
N       -0.5929217557   -0.7668526587   -1.5666465991
N        2.8190953098    1.2983707562    1.4029828252
O        1.1720612201    0.7613147259    2.8814887559
H        0.1317245520    2.2663204943   -0.2155499043
H       -1.9698954511    0.7469380821   -1.0374543837
H       -0.7846940161    1.2181475125   -2.2748640675
H       -0.2809881877   -2.6255458824   -0.6311587793
H       -1.5238505234   -1.6004337965    0.1366614216
H        4.2935345086    0.9427652014    2.8608434048
H        3.1242147296    2.2197807883    3.2817209625
H        4.3740665389    2.5440030466    2.0813757993
H        3.1084455515    2.2130656544   -0.4725297596
H        2.8857146203    0.4457151359   -0.5376636508
H        4.4090853800    1.1082854878    0.0374339233
H        0.8677645398   -1.6114737254    1.2463488917
H       -1.1754896123   -1.1862673064   -2.2834269930
24   

C        0.1730805681    1.0860929210   -0.3130460649
C        0.7567213743    0.2566022718    0.6147046717
C        1.7321722618    0.6823427529    1.6804015370
C       -0.7863991464    0.5533360996   -1.3346038623
C       -0.5964162967   -1.6498518173   -0.2000739860
C        3.8049110768    1.8118377171    2.4265314857
C        3.3852416988    1.4351361044   -0.0171613852
N        0.4925131938   -1.1199295279    0.6146648935
N       -0.5971426431   -0.9005028428   -1.4573251311
N        2.9265743569    1.3360474640    1.3642071024
O        1.4479138240    0.4733786721    2.8664909325
H        0.4238469003    2.1389862549   -0.3216240687
H       -1.8111284153    0.7713557776   -1.0153803332
H       -0.6129144575    1.0405060911   -2.2994687318
H       -0.4308507573   -2.7128725863   -0.4012011902
H       -1.5528137851   -1.5267645545    0.3197598313
H        4.4605576989    1.0038796425    2.7655530966
H        3.2224273969    2.1794986515    3.2777688112
H        4.4189458273    2.6439144032    2.0679360813
H        3.0759888787    2.3892028427   -0.4546018777
H        2.9909753724    0.6160028395   -0.6276113961
H        4.4767763652    1.3633130817   -0.0579508137
H        0.8302195275   -1.6689174994    1.4014293817
H       -1.2352187869   -1.3110826925   -2.1305654882
24   

C        0.2720963129    1.0026869774   -0.4147271668
C        0.7942941743    0.1715959400    0.5497278587
C        1.7845463329    0.5591953379    1.6139188715
C       -0.7394049572    0.5062054474   -1.4045739170
C       -0.7525069227   -1.6345662588   -0.1412002994
C        3.7720246723    1.7803097073    2.4345401895
C        3.3636548088    1.5665817123   -0.0274703228
N        0.3964612129   -1.1677687956    0.6274483651
N       -0.6987712243   -0.9636334020   -1.4405931301
N        2.9141319875    1.3380771910    1.3412120975
O        1.5726753823    0.1933326314    2.7781529287
H        0.5946285680    2.0339252527   -0.4706718862
H       -1.7359137137    0.8448233371   -1.1016123386
H       -0.5220437102    0.9145318229   -2.3967447445
H       -0.6954670922   -2.7187383573   -0.2796677520
H       -1.6833886470   -1.3864753544    0.3803052325
H        4.4641632307    0.9819890647    2.7196996609
H        3.1726412138    2.0617207859    3.3067609535
H        4.3470901425    2.6621384796    2.1350625592
H        2.9890095931    2.5253221617   -0.3985339895
H        3.0284910618    0.7648543816   -0.6937362225
H        4.4575876252    1.5754215306   -0.0684116965
H        0.6846318136   -1.6882115896    1.4537185816
H       -1.3825919094   -1.3484491950   -2.0833698663
24   

C        0.3791195394    0.9029118891   -0.4712703053
C        0.8691989193    0.0916738350    0.5288933241
C        1.8772197939    0.4674955574    1.5808858598
C       -0.6831486844    0.4231495880   -1.4160871637
C       -0.8406596619   -1.6197820246   -0.0106161451
C        3.7874517893    1.7632155308    2.4596530233
C        3.3736122914    1.6829043589   -0.0045055139
N        0.3620997606   -1.1978726697    0.6982819981
N       -0.7646047671   -1.0435440071   -1.3529301621
N        2.9386083155    1.3507108630    1.3472758575
O        1.7663912967   -0.0343766185    2.7085851454
H        0.7470276222    1.9129172686   -0.5864793436
H       -1.6443729615    0.8627059780   -1.1292584178
H       -0.4473259750    0.7437582182   -2.4358821804
H       -0.8746673318   -2.7118151163   -0.0751189577
H       -1.7344161484   -1.2610899329    0.5114542454
H        4.5073980367    0.9746668396    2.6999210415
H        3.1815644407    1.9761048854    3.3467247687
H        4.3313264209    2.6788130099    2.2068467766
H        2.9471931194    2.6396421287   -0.3208158227
H        3.0861098654    0.9016428754   -0.7156690615
H        4.4653162855    1.7563043066   -0.0415362815
H        0.6459252478   -1.6896085710    1.5447039818
H       -1.4912383593   -1.4131536323   -1.9563738920
24   

C        0.4532180317    0.8165096591   -0.5653865566
C        0.9112457098    0.0260376992    0.4688982998
C        1.9394109239    0.3808451097    1.5114207950
C       -0.6527034327    0.3597732598   -1.4719629424
C       -0.9458456280   -1.5710733980    0.0604661273
C        3.7736803608    1.7226952683    2.4734473464
C        3.3468055077    1.8109939200    0.0178509719
N        0.3015050358   -1.2019926460    0.7185738881
N       -0.8497269070   -1.0882845056   -1.3159394972
N        2.9311927715    1.3568702902    1.3392913177
O        1.9386489514   -0.2541581726    2.5762169747
H        0.8626100998    1.8000386580   -0.7405799695
H       -1.5737632734    0.8914268015   -1.2105327102
H       -0.4024204121    0.5945558552   -2.5115093337
H       -1.0672155424   -2.6587607181    0.0676318633
H       -1.7970114984   -1.1089420143    0.5722597422
H        4.5360065430    0.9557175151    2.6426890647
H        3.1692092509    1.8313977758    3.3801688660
H        4.2668311885    2.6826845385    2.2910545987
H        2.8495024146    2.7510188650   -0.2397924888
H        3.1293435647    1.0556664025   -0.7442904233
H        4.4293129986    1.9736799468   -0.0019746304
H        0.6013664032   -1.6923107679    1.5612627768
H       -1.6133550322   -1.4358989633   -1.8857656606
24   

C        0.5464224103    0.7128881246   -0.6609313914
C        0.9538934336   -0.0206939428    0.4376296436
C        2.0205366897    0.3049394845    1.4564972443
C       -0.6078162113    0.2737076622   -1.5156800287
C       -1.0449467411   -1.4822194843    0.1773859317
C        3.8088560172    1.6468100419    2.5005198080
C        3.2934402423    1.9810769185    0.0889480150
N        0.2337707767   -1.1556070116    0.7952473967
N       -0.9224392008   -1.1334428069   -1.2356409967
N        2.9487715693    1.3537989205    1.3570810032
O        2.1246653086   -0.4397804835    2.4431407386
H        1.0232370423    1.6352696842   -0.9480440831
H       -1.4777911992    0.9009715086   -1.2944106275
H       -0.3545073483    0.3971098907   -2.5735514780
H       -1.2518441154   -2.5517461865    0.2830240825
H       -1.8518416207   -0.9098852790    0.6478029637
H        4.6154354707    0.9097692786    2.5668320887
H        3.2302111799    1.6271469056    3.4301005819
H        4.2452555571    2.6463635474    2.4084793685
H        2.6558674025    2.8510643524   -0.0959083806
H        3.2069351905    1.2649559172   -0.7346333026
H        4.3356568291    2.3162314286    0.1016221249
H        0.5578979339   -1.6569459623    1.6229719138
H       -1.7180897916   -1.4641408723   -1.7706236523
24   

C        0.8334847552    0.5620133089   -0.6733173110
C        0.9097584525    0.2860574384    0.6754731253
C        2.1048905462    0.4530629003    1.5801136107
C       -0.3632030684    0.1558831476   -1.4783035775
C       -1.3284544722   -0.8132768187    0.5884063773
C        4.3254407221    1.3301246614    2.2064853588
C        2.9869284333    2.5088658747    0.4602529630
N       -0.1279671115   -0.3936210564    1.3070508014
N       -0.9752742299   -1.0044053820   -0.8180318598
N        3.1437012073    1.3659128991    1.3510142076
O        2.1582302384   -0.2372509251    2.6070543357
H        1.6854425285    0.9580952473   -1.2059301938
H       -1.0767553472    0.9843330648   -1.5322661001
H       -0.0528850834   -0.1095824029   -2.4943181021
H       -1.7005442879   -1.7547057702    1.0049782713
H       -2.1088171943   -0.0511792790    0.6845252896
H        5.1625432512    1.8462110726    1.7259112233
H        4.6377497252    0.2957505160    2.3853330221
H        4.1133459715    1.8099254602    3.1670599535
H        1.9342147274    2.7951204030    0.3695090988
H        3.3956565638    2.2838001912   -0.5295177802
H        3.5154649457    3.3778077217    0.8655839325
H        0.1235028761   -0.8489730600    2.1852825240
H       -1.7502538025   -1.3891919259   -1.3474260101
24   

C        0.8935941570    0.4489224691   -0.7228436575
C        0.9511232026    0.2225589343    0.6341303995
C        2.1611559364    0.3669378195    1.5172742123
C       -0.3310867445    0.0995249393   -1.5118654301
C       -1.3788166328   -0.6606569605    0.6061637977
C        4.3376968446    1.3459887979    2.1538837382
C        2.8691958684    2.5425452970    0.5200265491
N       -0.1422757083   -0.3260517206    1.3089877850
N       -1.0479762356   -0.9590236785   -0.7875633946
N        3.1267160526    1.3653765015    1.3407925214
O        2.3074322175   -0.4429251178    2.4420687848
H        1.7780775658    0.7673725033   -1.2572802784
H       -0.9679720852    0.9827318929   -1.6240910109
H       -0.0411280309   -0.2550264997   -2.5065139744
H       -1.8426157088   -1.5375925512    1.0688683578
H       -2.0799418016    0.1786950669    0.6599609850
H        5.1258564901    1.9399347709    1.6805452957
H        4.7155710610    0.3231920739    2.2563608353
H        4.1327841932    1.7521145170    3.1492921076
H        1.7961447431    2.7477302976    0.4498630292
H        3.2814641708    2.4075896477   -0.4845065258
H        3.3308079956    3.4257627156    0.9733099956
H        0.0849798040   -0.8132431048    2.1757267978
H       -1.8547589859   -1.3018663187   -1.2979778017
24   

C        0.9797507997    0.3174165165   -0.7805951907
C        1.0312674614    0.1366857259    0.5817427391
C        2.2574305897    0.2582687243    1.4441232181
C       -0.2747923932    0.0331958237   -1.5485837996
C       -1.3723110385   -0.5107315930    0.6139720690
C        4.3775263119    1.3338323604    2.1237053018
C        2.7952410014    2.5384553384    0.5995585630
N       -0.1018706154   -0.2755722777    1.2970648927
N       -1.0852864264   -0.9098370500   -0.7644686707
N        3.1454335296    1.3342140704    1.3433442553
O        2.4973590552   -0.6518936649    2.2471732873
H        1.8839909511    0.5607819479   -1.3229211444
H       -0.8283626789    0.9626992693   -1.7153198280
H       -0.0218583004   -0.4050769002   -2.5197069141
H       -1.9223974189   -1.3104779245    1.1199377645
H       -1.9810508138    0.3993276240    0.6288779100
H        5.1224319079    1.9885199505    1.6605831757
H        4.8083379452    0.3279165270    2.1662782479
H        4.1806189195    1.6808252738    3.1427685606
H        1.7097112334    2.6714060643    0.5497040014
H        3.2008326443    2.4925263819   -0.4156491612
H        3.2000070265    3.4226001127    1.1025135402
H        0.0876816808   -0.7793432274    2.1621957751
H       -1.9251029724   -1.2006813296   -1.2534785495
24   

C        1.0326979453    0.1739988404   -0.8623511750
C        1.0902957799    0.0597069192    0.5055315142
C        2.3387490393    0.1581812290    1.3406767982
C       -0.2528331745   -0.0441048894   -1.6001943521
C       -1.3641459630   -0.3375683572    0.6055268597
C        4.3864575189    1.3247523510    2.0963520227
C        2.6942007840    2.5325037532    0.6936661525
N       -0.0654517282   -0.2028933676    1.2626962066
N       -1.1415945145   -0.8479016764   -0.7478548368
N        3.1395250787    1.3037761984    1.3404767175
O        2.6758889284   -0.8240829976    2.0115199263
H        1.9465388658    0.3253893002   -1.4223881055
H       -0.7175703314    0.9200622427   -1.8296603678
H       -0.0544186492   -0.5709130718   -2.5394729073
H       -1.9903426732   -1.0408176214    1.1636408120
H       -1.8704036025    0.6327232010    0.5698912615
H        5.0809768736    2.0521601929    1.6645312430
H        4.8774949626    0.3464893254    2.0646327827
H        4.1918964277    1.5919727030    3.1396018092
H        1.6016119440    2.5868720343    0.6515943771
H        3.0961489610    2.5960310206   -0.3220495843
H        3.0331523529    3.4026401860    1.2649309030
H        0.0811677800   -0.6942487929    2.1419720746
H       -2.0135734640   -1.0835154871   -1.2095964282
24   

C        1.1136450976    0.0014404755   -0.9282065650
C        1.2061771978   -0.0042587318    0.4414424750
C        2.4897199671    0.0856591881    1.2286670509
C       -0.2072578597   -0.1758955335   -1.6125719942
C       -1.2684329804   -0.1804057910    0.6379345399
C        4.4378171572    1.3493109877    2.0934385971
C        2.6200310547    2.5371458644    0.8384354088
N        0.0569163519   -0.1177305528    1.2513642886
N       -1.1346532548   -0.8210354295   -0.6706708713
N        3.1788055443    1.2945581821    1.3593369031
O        2.9405758024   -0.9359865549    1.7568533046
H        2.0185199697    0.0445191810   -1.5208629459
H       -0.5982545663    0.7991540923   -1.9204554462
H       -0.0805768516   -0.7998706546   -2.5034738296
H       -1.9406194292   -0.7714174871    1.2680261945
H       -1.6822528524    0.8277361096    0.5306359208
H        5.0696225374    2.1535710097    1.7036860169
H        4.9971782439    0.4144106241    1.9839693956
H        4.2476545371    1.5273744177    3.1563136306
H        1.5274632801    2.4961257704    0.7865057402
H        3.0172319960    2.7435323511   -0.1600317421
H        2.8740369047    3.3702865330    1.5014099996
H        0.1820310519   -0.5584251815    2.1593072370
H       -2.0377881863   -1.0163264017   -1.0893934681
24   

C        1.1200977235   -0.1969916379   -1.0062756266
C        1.2612317145   -0.0472146695    0.3506390832
C        2.5810579282    0.0450680418    1.0808868911
C       -0.2320817191   -0.3628222906   -1.6296002596
C       -1.2123757763   -0.0390133260    0.6343244644
C        4.4337962203    1.3723164839    2.0675422274
C        2.4900141486    2.5251147910    0.9746055044
N        0.1335388426   -0.0175343011    1.2036228181
N       -1.1693961789   -0.8287600419   -0.5960479593
N        3.1519332228    1.2875419195    1.3745025587
O        3.1457933313   -0.9871518958    1.4546248944
H        2.0050896759   -0.2781212445   -1.6246307424
H       -0.5683091369    0.5948545742   -2.0400166186
H       -0.1762390738   -1.0919560749   -2.4446128778
H       -1.9073739868   -0.5009349772    1.3426226686
H       -1.5497841340    0.9814665017    0.4245086907
H        5.0183601824    2.2160881806    1.6881757575
H        5.0329141318    0.4695639155    1.9108953645
H        4.2713500097    1.5047010768    3.1416218510
H        1.9200824190    2.3959439571    0.0495937063
H        3.2277534006    3.3113918638    0.7873139492
H        1.8112527122    2.8599319246    1.7653259362
H        0.2549917207   -0.3707455640    2.1487032282
H       -2.0978412200   -1.0000811949   -0.9672544609
24   

C        1.1355443859   -0.3691460061   -1.0444360512
C        1.3283708612   -0.0800351267    0.2831999303
C        2.6825793926    0.0264942361    0.9474206146
C       -0.2403055583   -0.5430206264   -1.6107633180
C       -1.1359788900    0.0540863196    0.6307826730
C        4.4293026242    1.3674852024    2.1090120881
C        2.3915011715    2.4829536224    1.1720576162
N        0.2256671295    0.0643175537    1.1612096890
N       -1.1644503738   -0.8587304824   -0.5108149494
N        3.1519594689    1.2611124075    1.4104997798
O        3.3604047149   -0.9866916971    1.1418565748
H        1.9973431041   -0.5494486165   -1.6748096766
H       -0.5506891979    0.3803336647   -2.1106789520
H       -0.2374702007   -1.3539387626   -2.3465061484
H       -1.8314613837   -0.2972058590    1.3995039508
H       -1.4297462120    1.0636142264    0.3243380927
H        5.2006823941    1.7406439443    1.4284779416
H        4.7546479693    0.4021782613    2.5094823707
H        4.3364531721    2.0534554065    2.9567449468
H        1.8590374780    2.4392860121    0.2166359608
H        3.0633312885    3.3457922486    1.1255447850
H        1.6676108507    2.6416333262    1.9774292121
H        0.3583845208   -0.1945479894    2.1343156310
H       -2.1100566908   -1.0222306784   -0.8398609549
24   

C        1.3040201030   -0.4825895485   -1.0204414970
C        1.5110209859   -0.0723983829    0.2735759628
C        2.8831141389    0.1112131348    0.8796423121
C       -0.0723306882   -0.7423634221   -1.5508560494
C       -0.9562264217    0.0205812865    0.6404283329
C        4.5438941366    1.4398290556    2.1533257650
C        2.4012427601    2.4992724320    1.4039652238
N        0.4105884925    0.1039490798    1.1504319728
N       -0.9742412927   -0.9885789679   -0.4159059004
N        3.2452414682    1.3127752999    1.5010485488
O        3.6976910643   -0.8163375132    0.8703464555
H        2.1625818370   -0.6941684918   -1.6459835555
H       -0.4144698905    0.1263561150   -2.1228685964
H       -0.0543607419   -1.6122464115   -2.2155820931
H       -1.6359503866   -0.2770084933    1.4450567161
H       -1.2748124442    0.9931906788    0.2506236877
H        5.3105013056    1.7081102411    1.4198821370
H        4.8293718966    0.5020754825    2.6412410301
H        4.5060178090    2.2115234428    2.9285842071
H        1.7786505771    2.4743102217    0.5040018782
H        3.0210530616    3.3988471278    1.3355109878
H        1.7543043710    2.5792540368    2.2827804862
H        0.5588686526   -0.0575261428    2.1417200861
H       -1.9188614350   -1.2016137269   -0.7183432115
24   

C       -0.1382186699    0.5984086353    0.7060453973
C        1.2057588728    0.4101298231    0.4873261585
C        2.2644390786    1.1339570470    1.2817625756
C       -1.1796814324   -0.0537904768   -0.1498327886
C        0.6628397548   -1.2099735710   -1.3377064788
C        4.4728964681    1.2747248658    2.3846712556
C        3.5696084789   -0.9547158647    1.6978540467
N        1.6310827222   -0.4164764492   -0.5841634116
N       -0.5664903177   -0.4279859190   -1.4321503539
N        3.4385207784    0.4987375430    1.7092150612
O        2.1146075007    2.3249142941    1.5702844548
H       -0.4482941425    1.2969396278    1.4740249328
H       -1.5657811809   -0.9438042680    0.3578595791
H       -2.0099630439    0.6405359502   -0.3154421391
H        1.0484387561   -1.4125477154   -2.3418347646
H        0.4770956379   -2.1630378933   -0.8311278657
H        4.1751220277    1.4842468955    3.4168524441
H        4.6439605367    2.2219862070    1.8625224569
H        5.4204083230    0.7268616121    2.3920838636
H        4.0731655118   -1.2938598290    2.6086245768
H        4.1495365341   -1.2795997368    0.8290073872
H        2.5912273076   -1.4449164193    1.6801264132
H        2.5207868822   -0.2079461405   -1.0257867288
H       -1.2364416382   -0.8528149000   -2.0644719567
24   

C       -0.2053401014    0.6207354462    0.5678595781
C        1.1394761991    0.3586140981    0.4373379877
C        2.1743083608    1.0792362928    1.2626124855
C       -1.2345237441   -0.0312331929   -0.3027265162
C        0.5982900118   -1.3615619135   -1.2988905263
C        4.4187846301    1.3409714143    2.2606523480
C        3.6502727994   -0.9222986544    1.5394075540
N        1.5679688609   -0.5630823864   -0.5527018493
N       -0.5758968975   -0.5239752794   -1.5201664444
N        3.4184367525    0.5175259401    1.5889161322
O        1.9348004482    2.2105146512    1.6951487951
H       -0.5234836799    1.3748945464    1.2780513489
H       -1.6978813103   -0.8625261359    0.2387706651
H       -2.0135429187    0.6937511248   -0.5604312414
H        1.0242225275   -1.6608353750   -2.2617012119
H        0.3318398092   -2.2614188332   -0.7343088596
H        4.1471839088    1.4854714864    3.3111012684
H        4.4971389680    2.3190028033    1.7741805350
H        5.4042828244    0.8675250127    2.2094313322
H        4.2505211132   -1.2367747478    2.3990575625
H        4.1780764384   -1.1951083733    0.6209177678
H        2.7092175209   -1.4782145362    1.5973524373
H        2.4872433730   -0.4312313829   -0.9613764910
H       -1.2343719994   -0.9584192659   -2.1579924620
24   

C       -0.2087957678    0.7010933405    0.5528136053
C        1.1217869391    0.3453356131    0.5089160721
C        2.1446417033    1.0133686579    1.3920490474
C       -1.2333244175    0.0956849963   -0.3560486214
C        0.5418500547   -1.4087656888   -1.1845690160
C        4.4113164600    1.3430211478    2.3127807814
C        3.7584600354   -0.9056690127    1.4619615647
N        1.5279672549   -0.6479666741   -0.4211244648
N       -0.5465450988   -0.4949246103   -1.5122494960
N        3.4381018879    0.5096972258    1.6124576820
O        1.8489117084    2.0521185234    1.9901319308
H       -0.5180816175    1.4922473402    1.2258017761
H       -1.7919324810   -0.6748513893    0.1854547029
H       -1.9362746818    0.8673848841   -0.6865381206
H        0.9952394952   -1.7878246342   -2.1058352220
H        0.1744223905   -2.2558031180   -0.5954533723
H        4.1788026858    1.3810119724    3.3817371754
H        4.4014015407    2.3610580454    1.9090949831
H        5.4232297666    0.9470290481    2.1816130195
H        4.4506924841   -1.2213234114    2.2490206635
H        4.2228505332   -1.0946670687    0.4897608385
H        2.8638699329   -1.5266755499    1.5713875400
H        2.4700038274   -0.5931420083   -0.7927404816
H       -1.2000091505   -0.9076165366   -2.1694038072
24   

C       -0.1970211334    0.7507448787    0.4813341454
C        1.1042245176    0.2970928691    0.5409100342
C        2.1042574706    0.9249758844    1.4829106116
C       -1.2104756396    0.1805015734   -0.4623431852
C        0.4715609276   -1.5172901549   -1.0725698990
C        4.3610128094    1.3475591287    2.3893574414
C        3.8835272654   -0.8491309565    1.3236088890
N        1.4769265405   -0.7813416147   -0.3107451806
N       -0.5091222735   -0.5412806938   -1.5316782613
N        3.4395214620    0.5056948011    1.6300612995
O        1.7487609024    1.8587199194    2.2082778835
H       -0.4903723751    1.5898011223    1.1013614824
H       -1.8716842146   -0.5014945917    0.0823788361
H       -1.8169756444    0.9880414413   -0.8853167219
H        0.9388803036   -2.0051461464   -1.9336999561
H       -0.0010261888   -2.2805025259   -0.4450392532
H        4.1633298831    1.2551635259    3.4619888416
H        4.2492456676    2.3966011792    2.0951134502
H        5.3987137383    1.0611869806    2.1914841207
H        4.6862700969   -1.1470915657    2.0056437458
H        4.2587458283   -0.9103472093    0.2979365730
H        3.0742459952   -1.5705152049    1.4728284999
H        2.4314867052   -0.8105837591   -0.6494971306
H       -1.1566293369   -0.9448637757   -2.2003216163
