39

C     -0.26238    1.97904   -0.72592
C      1.65093   -3.41241   -4.94834
C      0.86003   -4.10269   -4.02378
C      1.66327   -2.01335   -4.93665
C      0.08931   -3.39661   -3.09493
C      0.89086   -1.31276   -4.00569
C      1.28546   -3.11565    2.70648
C      2.36923   -1.42864    2.07028
C      0.09360   -1.99440   -3.07407
C     -2.64522    1.14601   -0.58890
C     -2.30450    1.73692    0.74654
C     -1.20499    1.08662   -0.09189
C     -0.69504   -1.23114   -2.03445
C      0.16045   -0.95585   -0.78678
C      0.36534    0.05103    1.53314
C     -0.59601   -0.25549    0.35810
N      0.51830    2.68309   -1.22822
N      2.55630   -2.66625    2.51535
N      0.33401   -2.23223    2.41404
N      1.05001   -1.14298    2.00747
O     -1.68523   -1.05214    0.81632
H      2.24911   -3.95905   -5.67284
H      0.84129   -5.18976   -4.02825
H      2.27215   -1.46851   -5.65389
H     -0.52588   -3.93953   -2.37969
H      0.90449   -0.22435   -4.00150
H      1.04851   -4.10752    3.06894
H      3.13974   -0.72161    1.79040
H     -3.17031    0.19867   -0.59731
H     -2.84905    1.81435   -1.41876
H     -2.27618    2.81641    0.85064
H     -2.60851    1.17920    1.62552
H     -1.04055   -0.28458   -2.46063
H     -1.58285   -1.79684   -1.73651
H      1.03213   -0.35621   -1.07255
H      0.54671   -1.90797   -0.40845
H     -0.20604    0.48291    2.35886
H      1.13177    0.76475    1.22416
H     -1.31256   -1.74651    1.39970
