69

C      5.51934    7.69150   -5.92798
C      4.91055    8.22883   -4.78904
C      5.79678    6.32083   -5.99261
C    -10.52103   -6.16209   -1.22339
C     -1.17847    0.54481   -0.24738
C      0.30178    3.91065    0.20712
C      1.40883    2.01106   -0.80773
C      4.59248    7.40120   -3.71011
C      5.46990    5.48996   -4.92137
C     -9.60842   -5.19299   -1.63258
C     -2.40165   -0.10875   -0.36118
C      1.52509    4.56745    0.32639
C      2.63996    2.65338   -0.69500
C     -2.24152    2.62658   -0.82624
C    -10.12419   -7.08826   -0.24901
C     -8.03371   -6.17104   -0.10202
C      0.22617    2.62643   -0.36121
C     -1.07619    1.92850   -0.48186
C      4.87591    6.02692   -3.76876
C     -3.48536    1.99578   -0.94597
C     -8.32959   -5.18996   -1.05693
C     -3.53958    0.61774   -0.71195
C      2.67929    3.92964   -0.13187
C      4.56166    5.07723   -2.65825
C     -4.72789    2.77252   -1.32946
C     -5.99811    1.98969   -0.97919
C     -5.83315    0.54850   -1.44772
C     -7.03615   -0.32519   -1.11241
C     -7.63412   -2.79258   -0.83082
C     -7.29512   -4.15751   -1.43408
N     -8.90506   -7.10029    0.30461
N      4.39350    5.65663   -1.39900
N     -6.67899   -1.76443   -1.37922
O      4.43634    3.87087   -2.82416
O      5.30352    3.75152    0.13361
O      4.12313    5.81688    1.05857
O     -4.73835   -0.10079   -0.78696
O     -7.22048   -3.89312   -2.84389
S      4.25356    4.75605    0.05833
H      5.77269    8.33820   -6.76373
H      4.68082    9.28965   -4.74274
H      6.26797    5.90246   -6.87771
H    -11.51983   -6.20850   -1.64646
H     -0.30064   -0.01921    0.05233
H     -0.59473    4.38504    0.59582
H      1.36639    1.03093   -1.27381
H      4.09078    7.83237   -2.84765
H      5.67125    4.42395   -4.95498
H     -9.87504   -4.46603   -2.39626
H     -2.48360   -1.17467   -0.16720
H      1.59374    5.54548    0.79196
H      3.55308    2.19118   -1.05097
H     -2.18234    3.69310   -1.02964
H    -10.81477   -7.85567    0.09495
H     -7.04387   -6.21336    0.35483
H     -4.73634    3.74015   -0.82002
H     -4.71286    2.98767   -2.40499
H     -6.16049    1.99008    0.10443
H     -6.87661    2.43992   -1.45281
H     -5.64674    0.53247   -2.53310
H     -7.91262   -0.07100   -1.71039
H     -7.28018   -0.25031   -0.05080
H     -7.55736   -2.79589    0.25700
H     -8.63952   -2.48659   -1.12540
H     -6.31226   -4.48194   -1.06161
H      4.68521    6.61386   -1.22134
H     -6.60560   -1.94727   -2.39124
H     -5.73044   -1.89566   -0.99568
H     -7.07517   -4.72579   -3.32399
