29   
Generated by ForceBalance from scan.xyz: Frame 1 of 11
C       -2.4180654642   -0.5933724620    0.8424909169
C       -3.2395359467   -1.2063051052    1.8020559691
C       -1.0417053560   -0.7003942398    1.1931957875
C       -2.5569034112   -1.8392427080    2.8968720371
C       -0.1476339535    1.0679798778   -0.5389057233
C        0.4104159279   -0.2707864750   -0.9625670309
C        0.0912607489   -0.0040796530    0.5050231074
C       -0.2038307570   -0.9302894194   -3.3211089305
C       -2.5777122542   -2.8371644035    5.0442442038
C       -0.3770230653   -1.2322101291   -1.8265162340
N       -0.7838585128   -1.9813186149    1.5357672392
N       -1.2810751270   -2.2730681775    2.7716557623
N        1.2669966217    0.1973074545    1.3385870042
O       -3.2356152637   -2.0354576872    4.0471093997
H       -2.7931789784    0.0669173421    0.0689591187
H       -4.3235402248   -1.2061897710    1.7649986510
H        0.5184148786    1.9241077284   -0.5098788250
H       -1.1725433162    1.2966621732   -0.8191230215
H        1.4837853676   -0.2784688127   -1.1406896390
H       -0.5470197372    0.0827687492   -3.5591581403
H       -0.7741079821   -1.6351898342   -3.9355772506
H        0.8480128525   -1.0018497235   -3.6196858871
H       -3.2906482377   -2.9183611848    5.8652052899
H       -1.6586606810   -2.3525580243    5.3867826826
H       -2.3317543566   -3.8246201634    4.6439690377
H       -0.0496486985   -2.2561054352   -1.6094179830
H       -1.4406385664   -1.1946607029   -1.5702988590
H        1.5655609733   -0.7092293102    1.6995456157
H        1.0209692907    0.7684278014    2.1475968447
29   
Generated by ForceBalance from scan.xyz: Frame 2 of 11
C       -2.3921821683   -0.5158951918    0.9513378474
C       -3.2305939402   -1.1466508708    1.8636707301
C       -1.0049263162   -0.6710728174    1.2183591275
C       -2.5801246134   -1.8479916389    2.9199083026
C       -0.1729761395    1.0666793248   -0.5774863251
C        0.3991116594   -0.2778889300   -0.9679546560
C        0.1045500873    0.0321654154    0.4935621920
C       -0.2708538393   -1.0253804890   -3.2863672592
C       -2.6520523833   -2.9818037179    5.0019383230
C       -0.4016595673   -1.2751912556   -1.7780859708
N       -0.6894827529   -1.9015727311    1.6598956584
N       -1.3091061936   -2.2597547086    2.8113843977
N        1.2910146904    0.2852957728    1.2966869863
O       -3.2957538485   -2.1414968997    4.0266422992
H       -2.7655160603    0.1699585711    0.1990181726
H       -4.3138448502   -1.1093366003    1.8148222425
H        0.4818950562    1.9318049941   -0.5874120716
H       -1.2039100342    1.2725492018   -0.8522199207
H        1.4668445227   -0.2760892519   -1.1764571516
H       -0.6274597848   -0.0233951586   -3.5502417830
H       -0.8520667399   -1.7548168727   -3.8607267091
H        0.7732584678   -1.1005564320   -3.6102065226
H       -3.3907319493   -3.1199435693    5.7919497250
H       -1.7551388187   -2.4984424445    5.3992089651
H       -2.3723489636   -3.9415441234    4.5592843925
H       -0.0610523200   -2.2889795932   -1.5344279187
H       -1.4585640351   -1.2353401687   -1.4942330784
H        1.6046760861   -0.6016254695    1.6918577799
H        1.0480372552    0.8859328455    2.0850469009
29   
Generated by ForceBalance from scan.xyz: Frame 3 of 11
C       -2.3460851841   -0.4181916812    1.0188861907
C       -3.1921678952   -1.0594998322    1.9084733368
C       -0.9606238559   -0.6226189000    1.2283925298
C       -2.5703338441   -1.8286707464    2.9256332992
C       -0.1765386861    1.0698402736   -0.6340082866
C        0.4061520472   -0.2818949904   -0.9843419342
C        0.1309992322    0.0779315899    0.4683797433
C       -0.3067787874   -1.1165236971   -3.2607016985
C       -2.7112569548   -3.0990000083    4.9273163966
C       -0.4020034741   -1.3140722817   -1.7421433006
N       -0.5930577710   -1.7835532794    1.7853883435
N       -1.2938891640   -2.2166821509    2.8508403163
N        1.3272601451    0.3760893378    1.2402384533
O       -3.3293696692   -2.2141790855    3.9746377735
H       -2.7216832022    0.2893753624    0.2883030487
H       -4.2738969504   -0.9784809391    1.8719405230
H        0.4682163758    1.9410901031   -0.6843780470
H       -1.2121471451    1.2539448414   -0.9058217514
H        1.4693132551   -0.2764070544   -1.2147021810
H       -0.6783294481   -0.1274273880   -3.5512271953
H       -0.8933970987   -1.8705148567   -3.7966180057
H        0.7307893570   -1.1937701033   -3.6045247597
H       -3.4852530477   -3.3055633824    5.6670165387
H       -1.8493232758   -2.6197237644    5.3993842867
H       -2.3826655338   -4.0212796830    4.4412169868
H       -0.0469571349   -2.3161774548   -1.4714547815
H       -1.4529685863   -1.2729027714   -1.4359313941
H        1.6552715881   -0.4924473324    1.6637528772
H        1.0868173090    1.0000371441    2.0111940062
29   
Generated by ForceBalance from scan.xyz: Frame 4 of 11
C       -2.3222972016   -0.1757886464    1.2399374256
C       -3.1896232100   -0.8320770946    2.0886071614
C       -0.9527478342   -0.5225014321    1.3019655004
C       -2.6110170565   -1.7819440521    2.9595659065
C       -0.1727776187    1.0733080869   -0.6420841838
C        0.4352512046   -0.2908336260   -0.8959562940
C        0.1385051952    0.1579495236    0.5229975832
C       -0.2616937589   -1.2864358964   -3.1130427837
C       -2.8090271840   -3.3167432150    4.7639909533
C       -0.3632524563   -1.3777621574   -1.5850790372
N       -0.5970506602   -1.6911400730    1.8490294450
N       -1.3594729324   -2.2151650004    2.8235322642
N        1.3162924173    0.5232898159    1.2943598881
O       -3.3902805084   -2.2883769665    3.9407973330
H       -2.6652964242    0.6288123188    0.5978094471
H       -4.2569255984   -0.6366519121    2.1208116936
H        0.4585737125    1.9497701828   -0.7446881380
H       -1.2077772385    1.2171291826   -0.9398977868
H        1.4987177477   -0.2862330405   -1.1248602774
H       -0.6349578895   -0.3213584286   -3.4737882374
H       -0.8434273115   -2.0779739264   -3.5977599567
H        0.7777314104   -1.3840878387   -3.4461103753
H       -3.5922799214   -3.5884484154    5.4722854195
H       -1.9284282892   -2.9403795677    5.2911436714
H       -2.5181340679   -4.1786244419    4.1580237030
H       -0.0074629250   -2.3571014057   -1.2421694413
H       -1.4157210714   -1.3165428292   -1.2854632268
H        1.6644263449   -0.3153297426    1.7600839672
H        1.0515912502    1.1768038790    2.0320588362
29   
Generated by ForceBalance from scan.xyz: Frame 5 of 11
C       -2.2791247670   -0.0792879764    1.3102230111
C       -3.1481241813   -0.7460065825    2.1461839209
C       -0.9197818322   -0.4633546415    1.3213389614
C       -2.5918842281   -1.7574721612    2.9577786006
C       -0.1872323637    1.0752370059   -0.6823018793
C        0.4323741116   -0.2903312253   -0.8977201520
C        0.1558290161    0.2065238181    0.5092964075
C       -0.3000438617   -1.3745503493   -3.0621028721
C       -2.8410438583   -3.4126364428    4.6471344316
C       -0.3683500395   -1.4099204501   -1.5300456135
N       -0.5202912239   -1.5614097491    1.9693402543
N       -1.3261215679   -2.1546931876    2.8613833214
N        1.3426840354    0.6104619633    1.2456133146
O       -3.4081332471   -2.3505901050    3.8576480791
H       -2.6195610637    0.7439834489    0.6907103483
H       -4.2077172440   -0.5177949319    2.2083128303
H        0.4316139647    1.9544755401   -0.8281218405
H       -1.2288310482    1.1954429482   -0.9674719196
H        1.4910535396   -0.2831534209   -1.1475795288
H       -0.6910094603   -0.4272176786   -3.4500299629
H       -0.8833663159   -2.1891972902   -3.5048289189
H        0.7331992397   -1.4742061685   -3.4133094130
H       -3.6545611809   -3.7529727620    5.2885405545
H       -2.0049867971   -3.0453232357    5.2478990677
H       -2.4874511684   -4.2246196601    4.0066343285
H        0.0049805822   -2.3727377605   -1.1596123047
H       -1.4151012464   -1.3481197521   -1.2104504238
H        1.7039571844   -0.2080987441    1.7364707824
H        1.0820558802    1.2860632288    1.9647059391
29   
Generated by ForceBalance from scan.xyz: Frame 6 of 11
C       -2.2476032701    0.0066975075    1.3764347486
C       -3.1227798310   -0.6668306964    2.1988009108
C       -0.8997501385   -0.4139176297    1.3398503984
C       -2.5878179686   -1.7357967062    2.9466016362
C       -0.2052684145    1.0628409712   -0.7161742397
C        0.4221438925   -0.3044715016   -0.8939587725
C        0.1645862869    0.2397462064    0.4994970337
C       -0.3472737133   -1.4643113630   -3.0062192462
C       -2.8776887941   -3.5005310862    4.5151931003
C       -0.3809254811   -1.4512263556   -1.4726744868
N       -0.4690782411   -1.4358527848    2.0844197838
N       -1.3090892864   -2.0957146964    2.8928417245
N        1.3585507886    0.6757593200    1.2038084586
O       -3.4344810228   -2.4112291589    3.7560799201
H       -2.5795428256    0.8487873983    0.7775805474
H       -4.1729235758   -0.4070850921    2.2910331810
H        0.4035538040    1.9411340989   -0.9039303563
H       -1.2527765826    1.1641342439   -0.9870793192
H        1.4763105678   -0.2978001512   -1.1621146346
H       -0.7568447466   -0.5337368547   -3.4148669609
H       -0.9316473352   -2.2983871643   -3.4096378507
H        0.6789198085   -1.5647956616   -3.3772889591
H       -3.7140169527   -3.9009605762    5.0890269558
H       -2.0874996786   -3.1447994892    5.1812794564
H       -2.4643683671   -4.2640251270    3.8511771122
H        0.0101524883   -2.3985569890   -1.0809532976
H       -1.4210319764   -1.3888414516   -1.1316034476
H        1.7273429448   -0.1220619354    1.7224559952
H        1.1023756155    1.3764201592    1.9001926216
29   
Generated by ForceBalance from scan.xyz: Frame 7 of 11
C       -2.2129477964    0.0999328274    1.4554395253
C       -3.0937213566   -0.5829169088    2.2648920224
C       -0.8826731628   -0.3681899634    1.3659419360
C       -2.5809315819   -1.7137666020    2.9339852575
C       -0.2228830446    1.0457780292   -0.7363259085
C        0.4154071889   -0.3208344640   -0.8762670042
C        0.1722404353    0.2686226279    0.5013902279
C       -0.3758660462   -1.5610194228   -2.9345024856
C       -2.9066068883   -3.5895776579    4.3596140516
C       -0.3863425549   -1.4939767769   -1.4020849103
N       -0.4323389796   -1.3149186315    2.1942004418
N       -1.2933731793   -2.0461913494    2.9154216542
N        1.3709080135    0.7363210347    1.1757010953
O       -3.4515807584   -2.4642214622    3.6457443724
H       -2.5306699800    0.9665347207    0.8842046645
H       -4.1307016542   -0.2906481653    2.3987329721
H        0.3739189553    1.9229495663   -0.9637989814
H       -1.2757586339    1.1264341821   -0.9936890098
H        1.4652697237   -0.3138759399   -1.1607647623
H       -0.7994874803   -0.6487167455   -3.3691314628
H       -0.9590744151   -2.4134249788   -3.2994147743
H        0.6455102345   -1.6662219694   -3.3173975582
H       -3.7613531953   -4.0491992732    4.8568012912
H       -2.1639293107   -3.2612205883    5.0912050007
H       -2.4367746494   -4.2955836716    3.6700000998
H        0.0184224664   -2.4240403488   -0.9836257302
H       -1.4218137031   -1.4273175091   -1.0473641261
H        1.7506320617   -0.0410741737    1.7169782195
H        1.1159719242    1.4564327906    1.8524906224
29   
Generated by ForceBalance from scan.xyz: Frame 8 of 11
C       -2.2127707020    0.0763573095    1.4203485708
C       -3.1046105810   -0.6205484739    2.2076307476
C       -0.8669407623   -0.3635751801    1.3963942785
C       -2.5795754812   -1.7296697255    2.9080545367
C       -0.1791505820    1.0098060743   -0.7260390515
C        0.4088597877   -0.3783642750   -0.8539993102
C        0.1982814418    0.2393507312    0.5219229411
C       -0.4515950321   -1.5946396728   -2.8981369977
C       -2.8939827148   -3.6321396021    4.2972784827
C       -0.4340331821   -1.5290331550   -1.3655427884
N       -0.4151452939   -1.1313349115    2.3935786823
N       -1.2728523726   -1.9497389244    3.0257478249
N        1.4199028662    0.6729861680    1.1748880836
O       -3.4549391168   -2.5609018091    3.5159470388
H       -2.5347509824    0.9073010815    0.8013056743
H       -4.1540970350   -0.3588769404    2.2993670308
H        0.4467472363    1.8624577347   -0.9680439705
H       -1.2297732637    1.1264883910   -0.9779422634
H        1.4575814486   -0.4111311582   -1.1407788265
H       -0.8600977893   -0.6716591138   -3.3244349773
H       -1.0618819225   -2.4319806338   -3.2534727543
H        0.5601637318   -1.7242829683   -3.2985685092
H       -3.7533908436   -4.1655506214    4.7045551527
H       -2.2662416037   -3.2374289068    5.1002777879
H       -2.2924310232   -4.2956130251    3.6703140446
H       -0.0460069765   -2.4707047060   -0.9568693292
H       -1.4612238004   -1.4364312652   -0.9935011890
H        1.7624390589   -0.1009993731    1.7450834186
H        1.1956631017    1.4221676802    1.8309478532
29   
Generated by ForceBalance from scan.xyz: Frame 9 of 11
C       -2.2247359391    0.0809388710    1.3798296202
C       -3.1189201039   -0.6401448930    2.1468949708
C       -0.8672463197   -0.3376854018    1.4150629181
C       -2.5696622338   -1.7269480412    2.8739360189
C       -0.1425541612    0.9935937897   -0.7238148941
C        0.3924611375   -0.4143934868   -0.8377494010
C        0.2098837216    0.2287349855    0.5363585563
C       -0.5055787115   -1.6154888391   -2.8727842599
C       -2.8413493257   -3.6635927453    4.2196964089
C       -0.4905276635   -1.5390159997   -1.3405104673
N       -0.4488566205   -0.9067554048    2.5523975272
N       -1.2626154171   -1.8301263112    3.1077227980
N        1.4512326264    0.6257138235    1.1727926062
O       -3.4207166687   -2.6424688767    3.3868110864
H       -2.5482023496    0.8774941392    0.7186033474
H       -4.1790737343   -0.4158954234    2.2069512050
H        0.5136893651    1.8204516909   -0.9746590799
H       -1.1886563378    1.1472333994   -0.9740742917
H        1.4400920535   -0.4893871865   -1.1205493052
H       -0.8795345240   -0.6816861289   -3.3070527511
H       -1.1446637900   -2.4329215582   -3.2236982771
H        0.5019955906   -1.7843595917   -3.2690454598
H       -3.6819343376   -4.2792035374    4.5412153370
H       -2.3342883789   -3.2186872990    5.0798523707
H       -2.1223169375   -4.2630561827    3.6546705777
H       -0.1368431349   -2.4911057970   -0.9246494880
H       -1.5147947958   -1.4076664841   -0.9731196564
H        1.7652726694   -0.1480190674    1.7596768237
H        1.2546154991    1.3897893769    1.8207644345
29   
Generated by ForceBalance from scan.xyz: Frame 10 of 11
C       -2.2219615858    0.1959736374    1.4165841167
C       -3.1141268716   -0.5550245500    2.1662575942
C       -0.8758083401   -0.2778151892    1.4324080860
C       -2.5502522066   -1.6782724886    2.8426895512
C       -0.1346958669    0.9741345597   -0.7426928444
C        0.3748603877   -0.4444296686   -0.8086306270
C        0.2080655806    0.2513709762    0.5456629485
C       -0.5489477830   -1.6991547973   -2.7985444787
C       -2.7927874298   -3.6978032234    4.0607940440
C       -0.5286634655   -1.5711383189   -1.2698033818
N       -0.4924518675   -0.7123616359    2.6420496680
N       -1.2445821974   -1.7415136963    3.1170841243
N        1.4568554972    0.6442522114    1.1677587465
O       -3.3811302338   -2.6594577074    3.2567911334
H       -2.5304917955    1.0059450931    0.7650026504
H       -4.1711535316   -0.3284624870    2.2590837333
H        0.5338312969    1.7807451170   -1.0249435211
H       -1.1802365020    1.1355817633   -0.9909293676
H        1.4212356937   -0.5477896103   -1.0872592406
H       -0.9089445995   -0.7747303895   -3.2635020185
H       -1.2022980975   -2.5174057828   -3.1199052092
H        0.4546414829   -1.8980126293   -3.1910342605
H       -3.6152620415   -4.3701423138    4.3065442555
H       -2.3493501268   -3.2784920471    4.9679765528
H       -2.0192486252   -4.2306416996    3.5005733357
H       -0.1894375236   -2.5144068203   -0.8230305756
H       -1.5492967976   -1.4097092608   -0.9045795136
H        1.7574757226   -0.1157218869    1.7795218026
H        1.2722030619    1.4287755822    1.7945617538
29   
Generated by ForceBalance from scan.xyz: Frame 11 of 11
C       -2.2601814687    0.2579517049    1.3799011014
C       -3.1418157194   -0.5378467026    2.1127939794
C       -0.9129173217   -0.2319774223    1.4469826260
C       -2.5330824503   -1.6394383476    2.8159541480
C       -0.0966377587    0.9650181629   -0.7334686119
C        0.3436867929   -0.4722900121   -0.7769241086
C        0.1957610247    0.2489651523    0.5750996151
C       -0.5985769654   -1.7066586224   -2.7676484848
C       -2.7013337589   -3.6787214818    4.0047520406
C       -0.6018413472   -1.5634172984   -1.2400239461
N       -0.6127564748   -0.4566146993    2.7381209321
N       -1.2364590606   -1.6049035264    3.1678701036
N        1.4557525018    0.5888584129    1.2023946882
O       -3.3096279539   -2.6922281097    3.1534453577
H       -2.5633331922    1.0468317106    0.7014995953
H       -4.2092444752   -0.3613045398    2.1902153103
H        0.6129534133    1.7370072462   -1.0117888847
H       -1.1312011567    1.1745201998   -0.9914355942
H        1.3899734564   -0.6289175139   -1.0304235405
H       -0.9095701925   -0.7727960041   -3.2487201628
H       -1.2811837512   -2.4991419319   -3.0924247725
H        0.4022867108   -1.9534703419   -3.1392884812
H       -3.4804373465   -4.4179870002    4.1930568026
H       -2.3628694720   -3.2243475296    4.9402669877
H       -1.8466519480   -4.1463078036    3.5068363307
H       -0.3126103285   -2.5156977423   -0.7777479102
H       -1.6203369947   -1.3530490306   -0.8958587402
H        1.7324352786   -0.1878195861    1.8047611960
H        1.2931047279    1.3646044041    1.8458925419
