29

C      0.02401    5.97845    3.58136
C      0.39344    6.04150    2.23537
C      0.14609    4.77085    4.27875
C      0.87556    4.90245    1.58220
C      0.63295    3.63742    3.62620
C      0.99655    3.69071    2.27150
C     -0.74647    1.54267    0.95201
C     -2.96641    1.28974    0.35026
C     -2.34800    2.53156   -0.31728
C      2.17548    2.58854    0.23846
C      1.51535    2.42366    1.60706
N     -1.75701    0.65932    0.91117
N      0.42239    1.38256    1.54003
O     -1.01899    2.65752    0.30401
H     -0.34503    6.86556    4.08820
H      0.31270    6.97905    1.69249
H     -0.12252    4.71800    5.33002
H      1.15683    4.97319    0.53662
H      0.74404    2.70777    4.18225
H     -3.67136    1.54695    1.14566
H     -3.45050    0.62945   -0.37043
H     -2.18330    2.40601   -1.38803
H     -2.88029    3.45922   -0.11726
H      1.48194    2.98398   -0.50628
H      2.55506    1.62729   -0.11770
H      3.01940    3.27745    0.32282
H      2.24004    1.96155    2.28255
H     -1.79333   -0.16168    1.50397
H      0.57974    0.50319    2.01876
