38

C      5.39570    0.41654    5.67806
C      5.05767    1.08938    4.50474
C      3.19320   -0.58336    5.72247
C      4.46215   -0.42609    6.30362
C      3.79595    0.92383    3.92430
C      2.85512    0.06768    4.53971
C      4.75055   -1.16940    7.56985
C      0.24975   -0.76559    1.42276
C      1.73750   -1.15843    1.17532
C     -0.09718   -1.29124    2.83782
C      2.18198   -1.93103    2.43850
C      1.25075   -1.42349    3.54204
C      6.04319    0.34807    9.12379
C      2.44471    2.47441    2.71046
C      6.07520   -0.94459    8.28504
O      3.91323   -1.92632    8.05499
O      1.61882   -0.07774    3.95715
O      3.54770    1.55044    2.73011
H      6.38565    0.55893    6.09789
H      5.76655    1.74400    4.00601
H      2.47796   -1.23517    6.21380
H      0.13108    0.32061    1.38201
H     -0.41997   -1.18730    0.66768
H      1.86003   -1.76425    0.27294
H      2.35356   -0.26484    1.05296
H     -0.77896   -0.64048    3.39162
H     -0.55484   -2.28516    2.78248
H      2.01273   -3.00806    2.32143
H      3.23862   -1.79288    2.68300
H      1.21969   -2.07418    4.42216
H      5.88705    1.23262    8.49905
H      5.23364    0.30699    9.85876
H      6.98670    0.47544    9.66373
H      2.43899    2.90716    1.70845
H      2.60536    3.26796    3.45031
H      1.49885    1.96654    2.90780
H      6.22980   -1.80613    8.93909
H      6.90625   -0.90987    7.57354
