40

C      8.71943   -1.20913   -1.24912
C      7.21132   -0.74489    0.50986
C      9.77569   -1.27257   -2.32594
C      7.29769   -1.74411    8.21508
C      9.00528   -0.03804   -5.94997
C     11.39102   -0.64086   -6.55452
C      6.60440   -0.99902    7.06929
C      7.15748   -1.38113    5.69101
C      6.46616   -0.63030    4.54457
C     10.83395   -0.04877   -4.18277
C      7.03671   -1.02853    3.18620
C     10.30475   -0.69874   -5.47316
N      7.95927   -2.23303   -0.95795
N      7.07946   -1.95625    0.05599
N      9.90664   -0.12333   -3.05400
O     10.46328   -2.27277   -2.48454
O      6.70370    1.39139    1.99725
S      8.43141    0.21931   -0.27331
S      6.21522   -0.03784    1.85680
H      7.17672   -2.82863    8.11250
H      8.37260   -1.53071    8.23227
H      6.88445   -1.45286    9.18642
H      9.16015    1.02698   -6.16659
H      8.64144   -0.51185   -6.86743
H      8.20775   -0.12283   -5.20380
H     11.64180    0.39693   -6.80780
H     11.05403   -1.13313   -7.47246
H     12.30929   -1.13927   -6.22544
H      6.71403    0.08333    7.21431
H      5.52644   -1.20462    7.09625
H      7.04773   -2.46360    5.54143
H      8.23546   -1.17368    5.66217
H      6.58935    0.44937    4.68355
H      5.38862   -0.83677    4.56760
H     11.75841   -0.54146   -3.87288
H     11.05762    1.00994   -4.35615
H      6.85564   -2.07963    2.94032
H      8.10729   -0.81345    3.11332
H     10.10013   -1.75041   -5.24209
H      9.17295    0.57069   -2.99176
