32   
Generated by ForceBalance from scan.xyz: Frame 1 of 7
C       -0.4892445257    3.2010369811   -0.7102276820
C        0.1712639344    2.0603741555   -0.3043759322
C       -2.0238389129   10.1463044292   -2.8947183714
C       -3.0655847404   11.1839829070   -2.9631991828
C       -3.9998889728    4.2092809990   -1.5991843454
C       -1.9158427403    0.8107808425   -0.3685577150
C       -4.5938691681    2.9483731832   -1.3944341963
C       -1.8872098513    3.1998302512   -0.9619886246
C       -2.6137592941    1.9767177966   -0.7881296644
C       -2.6347982603    4.3502350031   -1.3841147103
C       -0.5616279593    0.8619904808   -0.1355617275
C       -2.6643895153    8.9840882879   -2.5055897208
C       -4.3535827885   10.6686606393   -2.9692573123
C       -2.0204199321    7.7630495774   -2.0914590444
C       -5.6560295277   11.3966322188   -3.0556833677
N       -3.9563213859    1.8562637656   -1.0040029765
N       -2.6772088811    6.6536813430   -1.9771505946
N       -1.9945311856    5.5616886777   -1.5685623012
S       -4.1955573439    8.9493230577   -3.4174316172
Cl       0.2977403860   -0.5791821786    0.3823380132
H        0.1029354889    4.1040938409   -0.8325901740
H        1.2395936617    2.0719400227   -0.1151853861
H       -0.9740215592   10.3575127444   -2.7052511821
H       -2.8547431925   12.2468814050   -2.8807021501
H       -4.5931607113    5.0574546102   -1.9170452792
H       -2.4847209749   -0.1040621755   -0.2425334504
H       -5.6652260101    2.8422840111   -1.5643396169
H       -0.9562785666    7.8350065896   -1.8231707135
H       -6.1547889522   11.2228500316   -4.0167198177
H       -6.3440667331   11.0662748231   -2.2692154779
H       -5.4980160267   12.4734923905   -2.9451177921
H       -0.9978027048    5.6391537821   -1.3852215105
32   
Generated by ForceBalance from scan.xyz: Frame 2 of 7
C       -0.4821307252    3.1802464212   -0.7420652881
C        0.1932182975    2.0364173285   -0.3708218887
C       -2.0966881916   10.1717285159   -2.7430052993
C       -3.0764394360   11.2101715593   -2.9391559888
C       -4.0170967187    4.1865584456   -1.5289829520
C       -1.8896020700    0.7785177675   -0.4051364454
C       -4.6008109014    2.9202211520   -1.3294801696
C       -1.8856325652    3.1766298456   -0.9603275962
C       -2.6027243608    1.9477407467   -0.7885243352
C       -2.6473144394    4.3310164481   -1.3462846192
C       -0.5303418138    0.8321730026   -0.2042272640
C       -2.7165741306    8.9784379264   -2.4163212810
C       -4.3687837735   10.7300229036   -2.9998012394
C       -2.0627534994    7.7538678432   -2.0258174898
C       -5.6382287225   11.4938900883   -3.2190069430
N       -3.9497842296    1.8244055004   -0.9729210827
N       -2.7134570029    6.6441982319   -1.9034846952
N       -2.0163352465    5.5463610659   -1.5274119472
S       -4.3219881064    8.9748286165   -3.1491568438
Cl       0.3473817607   -0.6134926024    0.2691761735
H        0.1028067401    4.0882072488   -0.8630302766
H        1.2656786905    2.0501119742   -0.2068418217
H       -1.0435767111   10.3628924795   -2.5535272566
H       -2.8385146833   12.2692871138   -2.9684259434
H       -4.6221279449    5.0365146900   -1.8183995002
H       -2.4513246356   -0.1408785646   -0.2801391387
H       -5.6757476629    2.8124868321   -1.4742380885
H       -0.9883372894    7.8239248877   -1.8037451444
H       -6.1115457243   11.2313013429   -4.1722663803
H       -6.3660312511   11.2904110064   -2.4257189247
H       -5.4341190575   12.5682029553   -3.2283685551
H       -1.0150727931    5.6244708137   -1.3730262561
32   
Generated by ForceBalance from scan.xyz: Frame 3 of 7
C       -0.4672398749    3.1653113476   -0.7611574333
C        0.2173219553    2.0228857170   -0.4025520137
C       -2.1214759641   10.1793920467   -2.6263030432
C       -3.0742335140   11.2095697686   -2.9091271838
C       -4.0151292916    4.1609384681   -1.5005666392
C       -1.8610860127    0.7573029874   -0.4159120025
C       -4.5916236161    2.8917675164   -1.2987324035
C       -1.8732869822    3.1573600186   -0.9619934348
C       -2.5835089120    1.9251034172   -0.7860893854
C       -2.6437140884    4.3108588632   -1.3339304000
C       -0.4996619835    0.8154053361   -0.2314998242
C       -2.7352801036    8.9668076002   -2.3819092552
C       -4.3700763148   10.7523864210   -3.0064617468
C       -2.0777294254    7.7384644638   -2.0056683506
C       -5.6102121977   11.5385446471   -3.3088124710
N       -3.9322744823    1.7970193735   -0.9542989631
N       -2.7251502376    6.6293237543   -1.8740579296
N       -2.0194704668    5.5285309972   -1.5176851341
S       -4.4065931474    9.0079049942   -2.8990358895
Cl       0.3892408203   -0.6287646982    0.2257316944
H        0.1127402338    4.0758566916   -0.8864346852
H        1.2916953972    2.0401331776   -0.2519558067
H       -1.0659007572   10.3615989857   -2.4483682083
H       -2.8142527963   12.2584377946   -3.0163633576
H       -4.6272423612    5.0091776284   -1.7797539261
H       -2.4176763869   -0.1647391873   -0.2874767547
H       -5.6678605496    2.7805489099   -1.4308861570
H       -0.9962401139    7.8055682456   -1.8217203716
H       -6.0833586563   11.2087292291   -4.2405890948
H       -6.3528607024   11.4392215533   -2.5094851620
H       -5.3630949526   12.5983983135   -3.4130926357
H       -1.0173756814    5.6102972100   -1.3718281517
32   
Generated by ForceBalance from scan.xyz: Frame 4 of 7
C       -0.4735871943    3.1683740917   -0.7623921515
C        0.2130203760    2.0250727367   -0.4105272509
C       -2.1575672484   10.2030350718   -2.5485320480
C       -3.0869091817   11.2217838088   -2.9094854313
C       -4.0234641892    4.1602715887   -1.4968754074
C       -1.8624274499    0.7547732727   -0.4317936574
C       -4.5973610643    2.8891320509   -1.3004233675
C       -1.8794592551    3.1582150046   -0.9641601765
C       -2.5870151012    1.9234669955   -0.7948637963
C       -2.6521649340    4.3120712394   -1.3305517160
C       -0.5011257241    0.8148532828   -0.2472172648
C       -2.7510655964    8.9695026034   -2.3676246089
C       -4.3818099522   10.7684914415   -3.0032709101
C       -2.0907158047    7.7406737831   -2.0008025998
C       -5.6132686129   11.5485551572   -3.3564121856
N       -3.9356819218    1.7937303109   -0.9625645068
N       -2.7390612743    6.6342596740   -1.8542836699
N       -2.0303200664    5.5316164113   -1.5084758721
S       -4.4756239536    9.0624842677   -2.6447874075
Cl       0.3910910242   -0.6300840158    0.2011434057
H        0.1042728250    4.0812545774   -0.8803310360
H        1.2872150566    2.0438409727   -0.2588861839
H       -1.0910724265   10.3671988373   -2.4256147562
H       -2.8120996915   12.2556739561   -3.0944035399
H       -4.6373142717    5.0082613426   -1.7729194411
H       -2.4171318531   -0.1691392041   -0.3086880421
H       -5.6734958613    2.7765460140   -1.4323074048
H       -1.0033445162    7.8019894480   -1.8536021111
H       -6.0999731578   11.1510840417   -4.2538899534
H       -6.3499437888   11.5296340102   -2.5456436888
H       -5.3496919046   12.5919033379   -3.5490357939
H       -1.0262322999    5.6116120667   -1.3763462491
32   
Generated by ForceBalance from scan.xyz: Frame 5 of 7
C       -0.4705441778    3.1683573221   -0.7584896245
C        0.2153656832    2.0231022403   -0.4116677014
C       -2.1463383453   10.2132880984   -2.4823947922
C       -3.0757886753   11.2087520049   -2.9228323812
C       -4.0183358661    4.1637626540   -1.4993398005
C       -1.8593250333    0.7521658694   -0.4486708741
C       -4.5926812928    2.8917290188   -1.3098237365
C       -1.8755522672    3.1586737058   -0.9663425395
C       -2.5833785281    1.9228740316   -0.8062716088
C       -2.6473184558    4.3140105144   -1.3297424509
C       -0.4986166102    0.8113254556   -0.2594428199
C       -2.7414693102    8.9729016819   -2.3634889214
C       -4.3737404581   10.7545686200   -3.0047311211
C       -2.0812200992    7.7410592409   -2.0038032027
C       -5.5992211491   11.5189857572   -3.4061911093
N       -3.9317308694    1.7942760617   -0.9772587995
N       -2.7334517653    6.6393155368   -1.8382189463
N       -2.0248831061    5.5344890063   -1.5005399264
S       -4.4848841066    9.1219932429   -2.3893525478
Cl       0.3927289487   -0.6362494571    0.1820456406
H        0.1068451173    4.0828676624   -0.8655994362
H        1.2888294645    2.0416407024   -0.2549059738
H       -1.0734593839   10.3695392813   -2.4224265707
H       -2.7922971632   12.2221818781   -3.1908170545
H       -4.6311065651    5.0129713777   -1.7741233876
H       -2.4141055851   -0.1726624063   -0.3330746720
H       -5.6685639316    2.7799273068   -1.4443079643
H       -0.9887213025    7.7917795863   -1.8950249172
H       -6.0968699051   11.0561013688   -4.2655044096
H       -6.3303135870   11.5718477401   -2.5916048015
H       -5.3268583298   12.5413474554   -3.6815339094
H       -1.0180933407    5.6091959133   -1.3867474558
32   
Generated by ForceBalance from scan.xyz: Frame 6 of 7
C       -0.4639060651    3.1642940154   -0.7729512170
C        0.2169734499    2.0118687281   -0.4403337592
C       -2.1358127502   10.2443107137   -2.3733107746
C       -3.0672574848   11.2094730033   -2.9002054077
C       -4.0113376854    4.1879928910   -1.4791661816
C       -1.8654238670    0.7537905804   -0.4715667330
C       -4.5913048187    2.9177709672   -1.2939714192
C       -1.8704506517    3.1648438461   -0.9705323301
C       -2.5843838533    1.9320317570   -0.8143201423
C       -2.6381781773    4.3270836416   -1.3193579820
C       -0.5029933802    0.8030457035   -0.2923114904
C       -2.7146109633    8.9881235377   -2.3297114794
C       -4.3548279843   10.7223543615   -2.9960960214
C       -2.0549926530    7.7535984551   -1.9828104654
C       -5.5882603482   11.4296258491   -3.4667585443
N       -3.9347996250    1.8135775970   -0.9753250545
N       -2.7143858778    6.6566270650   -1.8049096195
N       -2.0095257228    5.5456374904   -1.4860910447
S       -4.4555350189    9.1935623366   -2.1255521722
Cl       0.3828300261   -0.6532309587    0.1309535007
H        0.1183443399    4.0761328426   -0.8764422253
H        1.2916225084    2.0225722854   -0.2912022295
H       -1.0612597638   10.4027595475   -2.3326803793
H       -2.7827848997   12.1970398427   -3.2508205669
H       -4.6205269464    5.0431637831   -1.7435242356
H       -2.4252269700   -0.1683743316   -0.3589339380
H       -5.6688492004    2.8133987946   -1.4204804523
H       -0.9584076097    7.7892328374   -1.9133677372
H       -6.0791473546   10.8759816944   -4.2748709695
H       -6.3212576910   11.5495029714   -2.6605606234
H       -5.3321061041   12.4248240612   -3.8407281948
H       -1.0004147542    5.6115089142   -1.3869389650
32   
Generated by ForceBalance from scan.xyz: Frame 7 of 7
C       -0.4762228132    3.1786637745   -0.8235716062
C        0.1998984586    2.0142652384   -0.5250073922
C       -2.1281677936   10.3002660379   -2.2091325625
C       -3.0841420570   11.2087707378   -2.8628636570
C       -4.0283132867    4.2493043225   -1.4298703383
C       -1.8962772092    0.7784843235   -0.5271026526
C       -4.6185482424    2.9826826915   -1.2512234217
C       -1.8870177759    3.1967865098   -0.9879415496
C       -2.6106201790    1.9692069758   -0.8344172211
C       -2.6506725384    4.3714296903   -1.3003017097
C       -0.5295905783    0.8108175250   -0.3790434525
C       -2.7065031832    9.0445448763   -2.2436676167
C       -4.3531639925   10.6648601377   -2.9982014367
C       -2.0486754385    7.8027939981   -1.9236145777
C       -5.5829991699   11.2833463295   -3.5802144318
N       -3.9656249367    1.8674664056   -0.9655804664
N       -2.7147536559    6.7074094987   -1.7457879331
N       -2.0135181569    5.5875613583   -1.4635376850
S       -4.4281462884    9.2961769537   -1.8566956639
Cl       0.3500358744   -0.6608894622    0.0005363421
H        0.1132160274    4.0858994973   -0.9267673708
H        1.2777945048    2.0114160542   -0.4009876077
H       -1.0558603539   10.4776585351   -2.1729319556
H       -2.7950324368   12.1538754939   -3.3147547318
H       -4.6335696301    5.1155257427   -1.6659392778
H       -2.4630632261   -0.1395579293   -0.4157822801
H       -5.6997897245    2.8914708068   -1.3538305932
H       -0.9494296827    7.8220176756   -1.8945717511
H       -6.0461622176   10.6182177943   -4.3178988329
H       -6.3367533853   11.4887131867   -2.8106641401
H       -5.3365836770   12.2276331050   -4.0746052303
H       -1.0019183260    5.6426805881   -1.3816308858
