36

C     -4.69006   -1.59560   -1.26456
C     -5.42825   -1.44648   -0.09258
C     -3.52570   -0.84462   -1.45772
C     -3.82877    0.21084    0.68520
C     -4.99754   -0.53449    0.88225
C     -3.07470    0.05847   -0.48422
C      1.29524   -1.19424   -0.87730
C     -0.61481    0.27308    1.45694
C      1.95153   -2.11875   -1.58348
C     -5.81780   -0.39053    2.11397
C      1.89543    0.07019   -0.29889
C     -0.19818   -1.19969   -0.58431
C      0.71748    2.06847    0.84716
C      0.73556    1.08615   -0.32520
C     -0.52177    0.22123   -0.07396
C     -1.80085    0.84589   -0.69583
O     -1.18335   -0.49648    2.19325
O     -6.82118   -1.03668    2.36346
O      0.05713    1.36656    1.92963
O     -5.34369    0.55841    2.96694
H     -5.02090   -2.28968   -2.03241
H     -6.33619   -2.01477    0.08259
H     -2.96621   -0.95673   -2.38401
H     -3.50877    0.90375    1.45573
H      1.44640   -2.99697   -1.97996
H      3.01799   -2.03418   -1.77961
H      2.19723   -0.10998    0.74249
H      2.78105    0.41293   -0.84051
H     -0.76680   -1.43445   -1.48794
H     -0.47607   -1.94673    0.16530
H      1.71190    2.34942    1.20179
H      0.14705    2.97689    0.62838
H      0.69454    1.60387   -1.28819
H     -1.60908    0.94539   -1.76986
H     -1.92864    1.86176   -0.30451
H     -5.94476    0.54959    3.73577
