66

C     -2.02194    2.36764   -1.08482
C     -3.77923    1.32912   -2.45348
C     -2.19455    0.00126   -1.15670
C     -1.53337    1.13422   -0.66614
C     -1.89351   -1.36723   -0.90150
C     -3.13842    2.47093   -1.96299
C     -3.28866    0.07847   -2.04470
C     -2.79433   -2.11120   -1.63447
C      2.85180    1.99144    3.19483
C     -0.77590   -1.69128    0.04047
C      0.75057    1.94072    0.09173
C      2.46407    0.18729    0.65605
C     -0.34821    0.87294    0.25322
C      0.26516   -0.54817   -0.00175
C      2.01528    1.64099    0.90269
C     -3.62777    3.84647   -2.36065
C      3.20107   -2.69109    2.47920
C      4.30683    3.52417    5.64870
C      0.37412    1.33999    5.50001
C     -1.91251   -4.19703   -3.22621
C      2.35843   -1.55968    3.07770
C      1.12633   -1.20916    2.23548
C      3.65528    2.14735    5.48514
C      1.22381    2.52671    5.02626
N     -3.63823   -1.22582   -2.33876
N      1.42715   -0.82684    0.85243
N      1.78094    1.95812    2.31748
N      2.54331    2.14262    4.53187
O      4.02103    1.90001    2.79802
S     -2.98587   -3.85284   -1.77108
H     -1.55187    3.28951   -0.75062
H     -4.62277    1.42081   -3.13379
H     -1.18838   -1.79153    1.05066
H     -0.28368   -2.63898   -0.19872
H      1.02537    1.98363   -0.96877
H      0.37315    2.93208    0.36192
H      2.79357    0.11968   -0.39033
H      3.33449   -0.02985    1.27236
H     -0.72365    0.88832    1.28859
H      0.65160   -0.52419   -1.03124
H      2.82171    2.30088    0.57113
H     -2.81265    4.45644   -2.76605
H     -4.41312    3.78978   -3.11970
H     -4.03664    4.38605   -1.49796
H      2.59846   -3.59640    2.34082
H      3.60351   -2.41425    1.50110
H      4.04147   -2.94096    3.13547
H      4.72975    3.85034    4.69537
H      3.58116    4.27360    5.98449
H      5.11252    3.48019    6.39025
H      0.17198    0.63924    4.68370
H      0.89151    0.78380    6.28811
H     -0.58556    1.68703    5.89907
H     -1.96595   -5.27349   -3.41013
H     -0.88000   -3.91551   -3.01042
H     -2.26867   -3.66144   -4.10855
H      2.98128   -0.67723    3.24864
H      1.98888   -1.86075    4.06606
H      0.49939   -2.10494    2.19863
H      0.53315   -0.45132    2.78018
H      3.26795    1.78791    6.44519
H      4.39771    1.42681    5.13849
H      1.36851    3.22246    5.85996
H      0.69818    3.09562    4.25356
H     -4.43845   -1.53012   -2.87538
H      0.88633    1.67117    2.68784
