49

C     -1.77971   -1.38784   -0.59780
C     -4.48146   -3.43110   -0.09870
C     -0.53738   -1.25661    0.27290
C     -0.96160   -1.84802    1.62539
C     -2.50306   -1.71007    1.64198
C     -9.00921   -8.48365    1.54569
C     -9.34710   -6.48862    0.08889
C     -6.31564   -7.23867    3.48603
C     -4.82179   -7.70619    1.48326
C     -4.15648   -1.93993   -0.29063
C     -6.19347   -5.17819   -0.43841
C     -6.71224   -5.48317    0.97579
C     -8.58838   -7.02695    1.31262
C     -6.26369   -7.67228    2.00776
C     -2.96610   -0.48539    2.43110
N     -2.86017   -1.59662    0.23886
N     -5.70396   -3.80395   -0.56118
N     -7.13218   -6.88222    1.10766
O     -1.84635   -1.31599   -1.81679
O     -3.69349   -4.21471    0.43337
F     -2.65234   -0.61299    3.74356
F     -2.40393    0.66501    1.98901
F     -4.31459   -0.32282    2.35756
H      0.29657   -1.78047   -0.19642
H     -0.27428   -0.19652    0.34198
H     -0.72241   -2.91268    1.66480
H     -0.49462   -1.36229    2.48356
H     -2.98242   -2.57956    2.09674
H     -8.63039   -9.12849    0.74494
H     -8.66330   -8.87947    2.50375
H    -10.10172   -8.54858    1.54407
H     -9.07544   -7.06250   -0.80374
H     -9.13504   -5.43384   -0.10619
H    -10.42724   -6.57764    0.24524
H     -5.90175   -6.23493    3.63057
H     -7.34200   -7.23664    3.86774
H     -5.73041   -7.92651    4.10621
H     -4.34109   -6.72338    1.49460
H     -4.80182   -8.08207    0.45558
H     -4.21829   -8.37664    2.10466
H     -4.12573   -1.70900   -1.35976
H     -4.94034   -1.32744    0.16676
H     -6.98000   -5.33245   -1.18037
H     -5.37297   -5.85719   -0.67486
H     -5.91019   -5.24249    1.67783
H     -7.53396   -4.79809    1.21978
H     -8.91542   -6.44022    2.19266
H     -6.62706   -8.70032    1.95325
H     -6.30780   -3.09909   -0.96349
