27   

C       -4.3482428569    0.0095626749    1.5992896085
C       -3.0710161919   -1.4971825999    0.2018905560
C       -3.1782157256    0.3869972509    2.2624190038
C       -1.8982541440   -1.0996933207    0.8559291137
C       -4.3105141943   -0.9378493902    0.5599144418
C       -1.9397887887   -0.1620457628    1.9029950629
C       -0.6837360166    1.5177424562    3.9256113874
C        0.8138462965    0.7248318155    1.6896276838
C       -5.5347088794   -1.3838027287   -0.1859329166
C       -6.8028352728   -0.5595854737   -0.0601155550
C       -0.1345389796   -1.2119455566    3.5232606067
O       -5.5037870319   -2.3360935849   -0.9557432710
S       -0.4131291075    0.3901056896    2.7444160943
H       -5.2817907931    0.4643282526    1.9103223890
H       -3.0106907496   -2.2291509519   -0.5979715222
H       -3.2326050187    1.1275672943    3.0550790367
H       -0.9491336246   -1.5214793910    0.5402318424
H       -0.0837132111    2.4173456558    3.9547511540
H       -1.4399743737    1.3560625426    4.6813753935
H        1.4361020129    1.5943883079    1.8548529059
H        0.9855498191    0.1015744903    0.8234173748
H       -6.5800508796    0.5001902546   -0.2099610853
H       -7.2475211485   -0.7078279352    0.9272882322
H       -7.5235201706   -0.8733654884   -0.8209047208
H        0.7450678294   -1.1348893138    4.1653843633
H       -1.0052312034   -1.4762990622    4.1261288162
H        0.0395690193   -1.9684650145    2.7571591120
27   

C       -4.3808274490   -0.0640307689    1.6964853371
C       -3.1022815143   -1.5161853936    0.2418563896
C       -3.2038906205    0.3325461234    2.3361342547
C       -1.9233060208   -1.0994847215    0.8722231107
C       -4.3439849782   -0.9957302678    0.6453361776
C       -1.9614798178   -0.1795900778    1.9356671301
C       -0.6945174377    1.5012309646    3.9502129616
C        0.7606792424    0.7825388249    1.6619576857
C       -5.5745229927   -1.4432099856   -0.0897748728
C       -6.7410593191   -0.4778210177   -0.1889649791
C       -0.0857320144   -1.2072812120    3.4894058662
O       -5.5854889906   -2.4799853855   -0.7416879914
S       -0.4270724623    0.3988692584    2.7447556660
H       -5.3214555440    0.3592699066    2.0307748864
H       -3.0482213993   -2.2319732718   -0.5729588347
H       -3.2560688099    1.0595204866    3.1414191418
H       -0.9723048806   -1.4911738813    0.5249911682
H       -0.1184329327    2.4164353836    3.9764963723
H       -1.4243226417    1.3076166477    4.7242403641
H        1.3633549751    1.6665080706    1.8232548064
H        0.9256221375    0.1765409593    0.7822968512
H       -6.3761700294    0.5378698627   -0.3639264620
H       -7.3246146604   -0.5036702859    0.7347499543
H       -7.3874946287   -0.7640501448   -1.0236522950
H        0.8090140392   -1.1172218117    4.1085104835
H       -0.9323259610   -1.5038924459    4.1112942280
H        0.0866317879   -1.9469094776    2.7065929990
27   

C       -4.3875706867   -0.1039803130    1.7675966958
C       -3.0968796649   -1.5019768800    0.2700915651
C       -3.2110748987    0.3075963471    2.3988539975
C       -1.9187346816   -1.0702862615    0.8917522819
C       -4.3422949139   -1.0194268138    0.7050634066
C       -1.9629970408   -0.1708125269    1.9728620273
C       -0.7045158410    1.5014206050    3.9997290690
C        0.7343914713    0.8523925948    1.6805610036
C       -5.5737723868   -1.4689099375   -0.0301289147
C       -6.6083132631   -0.4171163194   -0.3813399113
C       -0.0461269866   -1.1859750128    3.4840647458
O       -5.6368988192   -2.5813734092   -0.5377555310
S       -0.4303257126    0.4254118519    2.7722536355
H       -5.3363732792    0.2911905767    2.1136807234
H       -3.0431784235   -2.2013585910   -0.5588135159
H       -3.2681358773    1.0197338846    3.2169570503
H       -0.9640581266   -1.4339504761    0.5246905107
H       -0.1476174532    2.4281526653    4.0340184818
H       -1.4192564431    1.2790665232    4.7800784777
H        1.3202308696    1.7463155596    1.8488666951
H        0.9008825453    0.2643871261    0.7890749936
H       -6.1139470593    0.5193752522   -0.6533971606
H       -7.2679525992   -0.2450656889    0.4727302244
H       -7.2084803229   -0.7562421772   -1.2305450207
H        0.8551623816   -1.0883299118    4.0924371054
H       -0.8777947201   -1.5105680983    4.1121091026
H        0.1301762698   -1.9084412881    2.6862412118
27   

C       -4.4124577262   -0.1441440167    1.8727970963
C       -3.1494055623   -1.4691470829    0.2894700850
C       -3.2230479972    0.2745092048    2.4742032192
C       -1.9581642063   -1.0311690442    0.8814502695
C       -4.3862697554   -1.0286118448    0.7852454381
C       -1.9816709098   -0.1653772619    1.9906289270
C       -0.6847397217    1.4779875755    4.0170097237
C        0.6901169513    0.9055648406    1.6391534384
C       -5.6419919912   -1.4758773783    0.0858991540
C       -6.5306625868   -0.3907090430   -0.4878215952
C       -0.0050750713   -1.1863952252    3.4161706212
O       -5.7961846281   -2.6422426709   -0.2513911048
S       -0.4336754234    0.4357137882    2.7559546102
H       -5.3583802874    0.2187158660    2.2601210388
H       -3.1155636122   -2.1440435043   -0.5603062202
H       -3.2655730962    0.9610723812    3.3147251958
H       -1.0100189828   -1.3641343725    0.4708857608
H       -0.1404648726    2.4119666765    4.0566245079
H       -1.3713879279    1.2263174703    4.8135353015
H        1.2678732944    1.8041310152    1.8106521503
H        0.8381063171    0.3406086630    0.7297159090
H       -5.9178107772    0.4120942237   -0.9064718032
H       -7.1726221341    0.0169481597    0.2968153173
H       -7.1586436521   -0.8051411033   -1.2815974129
H        0.9138615603   -1.0904920731    3.9978246286
H       -0.8117406726   -1.5375400414    4.0623286914
H        0.1548883747   -1.8872643846    2.5959447987
27   

C       -4.4162454523   -0.1440544839    1.9956567648
C       -3.2100508022   -1.4342683336    0.3439659231
C       -3.2076248631    0.2645294245    2.5641630697
C       -1.9986351703   -1.0070458651    0.9026276892
C       -4.4280687429   -1.0032668278    0.8886396229
C       -1.9836662486   -0.1632881750    2.0288354518
C       -0.6196547518    1.4382277298    4.0442777965
C        0.6720136810    0.9209763938    1.6078993373
C       -5.7204695383   -1.4390049440    0.2419886151
C       -6.4470653211   -0.3930635208   -0.5772041361
C        0.0428624452   -1.2112180101    3.3622472719
O       -6.0147107720   -2.6225843854    0.1468275131
S       -0.4108358638    0.4239828196    2.7530688061
H       -5.3498835423    0.2059139434    2.4229364208
H       -3.2063698092   -2.0949269039   -0.5172215468
H       -3.2221997229    0.9327860529    3.4202464968
H       -1.0650412101   -1.3318768258    0.4539880828
H       -0.0768165797    2.3729818126    4.0849245403
H       -1.2771630753    1.1671704897    4.8588675903
H        1.2530716582    1.8176199399    1.7783560040
H        0.7895189279    0.3759282543    0.6820455444
H       -5.7264887178    0.2230108704   -1.1217754296
H       -7.0406484638    0.2457431708    0.0813451842
H       -7.1116923328   -0.8792976169   -1.2969222520
H        0.9806222135   -1.1257406871    3.9147547975
H       -0.7409371322   -1.5787180218    4.0272214593
H        0.1765010344   -1.8933724240    2.5218133516
27   

C       -4.4218069836   -0.1299587066    2.0714727246
C       -3.2555117368   -1.3273542539    0.3272788027
C       -3.2015280626    0.2527995363    2.6321860203
C       -2.0313406034   -0.9274018165    0.8792826994
C       -4.4606999716   -0.9138963362    0.9108675281
C       -1.9902491821   -0.1401253463    2.0447417283
C       -0.5783590153    1.3797832178    4.0917508265
C        0.6633351224    0.9460469999    1.6129441406
C       -5.7796197262   -1.3516149503    0.3156984732
C       -6.3687779973   -0.4433651550   -0.7417305889
C        0.0540109354   -1.2454050685    3.2988712870
O       -6.3777706905   -2.3378578276    0.7217082737
S       -0.4011806713    0.4137094284    2.7596944369
H       -5.3476876353    0.1801817975    2.5446301922
H       -3.2667645394   -1.9500152525   -0.5611265170
H       -3.1983905405    0.8705435219    3.5254630121
H       -1.1074914153   -1.2306380402    0.3966046016
H       -0.0281056846    2.3087568039    4.1572571238
H       -1.2229048131    1.0830129101    4.9077488593
H        1.2535619576    1.8321516733    1.8056618113
H        0.7602180179    0.4351477206    0.6655465336
H       -5.7593889507   -0.4869557725   -1.6480251042
H       -6.3947424544    0.5864324930   -0.3757370167
H       -7.3876000078   -0.7618907773   -0.9800755022
H        1.0031191201   -1.1858006481    3.8351605078
H       -0.7187511540   -1.6325467829    3.9656739297
H        0.1660690642   -1.8967392879    2.4312992273
27   

C       -4.4381841516   -0.1044262449    2.1163036037
C       -3.2957234790   -1.2187368276    0.3057521522
C       -3.2118801453    0.2650110768    2.6719502597
C       -2.0647071194   -0.8327947195    0.8531125565
C       -4.4952186106   -0.8308238447    0.9190062281
C       -2.0084843786   -0.0931404395    2.0483274851
C       -0.5688467065    1.3602517045    4.1262901616
C        0.6429074124    1.0032948939    1.6199711501
C       -5.8240149354   -1.2863909270    0.3672960829
C       -6.3018510717   -0.6052973810   -0.8974944316
C        0.0479125490   -1.2375318372    3.2424052723
O       -6.5890032442   -1.9668760732    1.0367783378
S       -0.4109105235    0.4383323559    2.7610666979
H       -5.3590101108    0.1686408297    2.6218685448
H       -3.3141639131   -1.8101212363   -0.6034177742
H       -3.1990292255    0.8418369355    3.5920547477
H       -1.1467803485   -1.1120610639    0.3452939426
H       -0.0126387331    2.2835124641    4.2170118277
H       -1.2071694835    1.0404300897    4.9384703103
H        1.2400488452    1.8794967336    1.8353428787
H        0.7260718743    0.5240412388    0.6549386690
H       -5.8036586022   -1.0440829108   -1.7654161747
H       -6.0749212094    0.4633150768   -0.8545370897
H       -7.3828188139   -0.7332347623   -1.0039146019
H        1.0038131151   -1.1961545576    3.7682497765
H       -0.7170572458   -1.6439610376    3.9067471987
H        0.1475043155   -1.8616306837    2.3535723881
27   

C       -4.4480314510   -0.0620214011    2.1443853322
C       -3.3335113577   -1.1196901758    0.2851788194
C       -3.2141373610    0.2880619744    2.6950241880
C       -2.0943824163   -0.7526111965    0.8277436682
C       -4.5260980413   -0.7493738575    0.9242020106
C       -2.0202012518   -0.0515498074    2.0446658469
C       -0.5494909635    1.3308145067    4.1502093271
C        0.6273924239    1.0554961896    1.6170609865
C       -5.8642697420   -1.1891262629    0.3924812833
C       -6.2258831995   -0.7560313169   -1.0135567274
C        0.0510710649   -1.2359079784    3.1728472410
O       -6.7240942886   -1.6373136996    1.1391845011
S       -0.4124950466    0.4550814339    2.7527484208
H       -5.3609143647    0.1964719406    2.6721067373
H       -3.3612015721   -1.6831873344   -0.6411450684
H       -3.1886826641    0.8352900374    3.6327861189
H       -1.1837620945   -1.0169434665    0.2991995069
H        0.0111695360    2.2486795732    4.2650039786
H       -1.1788760840    0.9860193980    4.9591523211
H        1.2302711741    1.9221847016    1.8538966885
H        0.6950468972    0.6096364490    0.6349767088
H       -5.7534059380   -1.4207869838   -1.7406725159
H       -5.8869654163    0.2687982267   -1.1871269797
H       -7.3106067629   -0.7959551824   -1.1477633160
H        1.0142872789   -1.2121477682    3.6863095954
H       -0.7048796010   -1.6630506799    3.8345121097
H        0.1375948050   -1.8308808250    2.2629546428
27   

C       -4.4334813075   -0.0575011157    2.2242600747
C       -3.3602632500   -1.0355993572    0.3005023671
C       -3.1888906151    0.2789039911    2.7582876873
C       -2.1101696986   -0.6824113330    0.8274366437
C       -4.5415354679   -0.7020477168    0.9814922049
C       -2.0096339333   -0.0290582534    2.0682187668
C       -0.4957504991    1.2915116179    4.1834982129
C        0.6289612056    1.0926858960    1.6192392342
C       -5.8945311045   -1.1144417613    0.4730791262
C       -6.1818128733   -0.9302841964   -1.0044203437
C        0.0832436540   -1.2438770701    3.1171425960
O       -6.8095670098   -1.3683023078    1.2457740789
S       -0.3880568181    0.4588064425    2.7574745078
H       -5.3327795408    0.1815851305    2.7838608957
H       -3.4017449847   -1.5611557876   -0.6471803245
H       -3.1444452776    0.7919715074    3.7144676307
H       -1.2111264909   -0.9198519453    0.2672270311
H        0.0680063784    2.2052731580    4.3147092952
H       -1.1092231142    0.9229394660    4.9941703014
H        1.2371640166    1.9517848086    1.8697526973
H        0.6764714989    0.6765982668    0.6230353081
H       -5.7837198382   -1.7768022081   -1.5692093634
H       -5.7225362257   -0.0051790420   -1.3630524467
H       -7.2617696034   -0.8716768595   -1.1676421487
H        1.0568280561   -1.2354149639    3.6111540607
H       -0.6591395577   -1.6905803984    3.7812576874
H        0.1503858007   -1.8112200010    2.1881619445
27   

C       -4.2216335923    0.7045650282    1.5244511669
C       -3.6042148101   -1.5195377934    0.8303487125
C       -2.9480643517    0.9003779253    2.0600064986
C       -2.3187745713   -1.3163979509    1.3516328618
C       -4.5683908196   -0.5000482721    0.8896741957
C       -1.9788227010   -0.1072163518    1.9824612771
C       -0.0874267355    1.6927879675    3.2841713485
C        0.8914037720   -0.3520093769    1.6291070823
C       -5.9662549242   -0.6944620598    0.3764169724
C       -6.1806562670   -1.6567428589   -0.7774529522
C       -0.5191329976   -0.9913351882    3.9953075404
O       -6.8858799993    0.0222597884    0.7505058213
S       -0.2989620979    0.1816277077    2.6438643780
H       -4.9553337166    1.5011943746    1.6035430900
H       -3.8325592571   -2.4753713010    0.3723531261
H       -2.7119324537    1.8507660662    2.5296551781
H       -1.5794404342   -2.1065169633    1.2644817767
H        0.7842759242    2.2729511848    3.0129765327
H       -0.8019461662    2.1008973829    3.9858172231
H        1.7821878172    0.2470740532    1.4936872062
H        0.7807021765   -1.2765573488    1.0806675973
H       -6.2185441867   -2.6831241932   -0.4039115682
H       -5.3703623025   -1.5600570637   -1.5050812258
H       -7.1261124488   -1.4279172810   -1.2777506567
H        0.3794979093   -0.9758194160    4.6151663094
H       -1.3812021833   -0.6927025674    4.5947541956
H       -0.6667407600   -1.9938916337    3.5922855062
27   

C       -4.2140607621    0.7387816653    1.5172958327
C       -3.5870721371   -1.4616152696    0.7584611866
C       -2.9455749240    0.9197276641    2.0695275313
C       -2.3065549972   -1.2719375473    1.2969891607
C       -4.5563186571   -0.4484044176    0.8468584952
C       -1.9743560185   -0.0834912119    1.9694255227
C       -0.0977096544    1.6763231665    3.3458963139
C        0.8995083596   -0.3082252636    1.6295151630
C       -5.9440993839   -0.6186593543    0.2998003450
C       -6.2119255793   -1.7638552265   -0.6597871918
C       -0.5264894134   -1.0312603590    3.9615428677
O       -6.8295202423    0.1917219492    0.5426082171
S       -0.3001880918    0.1875943537    2.6524065352
H       -4.9463081128    1.5352136273    1.6107963115
H       -3.7985322160   -2.4035655580    0.2657608152
H       -2.7143238182    1.8563935267    2.5683031389
H       -1.5638268449   -2.0562735873    1.1888407473
H        0.7749064183    2.2672358056    3.1022238181
H       -0.8193829155    2.0588728015    4.0545776159
H        1.7899809745    0.2969776818    1.5221184727
H        0.7951380490   -1.2131626214    1.0481132051
H       -6.2148464033   -2.7127945843   -0.1173963571
H       -5.4496541173   -1.7862962844   -1.4431373785
H       -7.1890924362   -1.6270015619   -1.1321160734
H        0.3675538374   -1.0341094938    4.5881815316
H       -1.3938603037   -0.7556719228    4.5643483858
H       -0.6678245670   -2.0199685182    3.5235893856
27   

C       -4.2221695553    0.7695378345    1.4980511617
C       -3.5737315108   -1.4015995069    0.6760367570
C       -2.9613108937    0.9394712399    2.0708923296
C       -2.3009253201   -1.2223574139    1.2361144917
C       -4.5521734655   -0.3994649591    0.7899398255
C       -1.9833866443   -0.0547700878    1.9505198188
C       -0.1275184254    1.6757985913    3.3911397069
C        0.8948110563   -0.2586017487    1.6326738770
C       -5.9256826855   -0.5466895307    0.2006526628
C       -6.2678760456   -1.8241180250   -0.5443273111
C       -0.5508314100   -1.0488983410    3.9303062471
O       -6.7691634091    0.3332911014    0.3185546112
S       -0.3169500130    0.2052308108    2.6564487029
H       -4.9572180164    1.5618968609    1.6034473366
H       -3.7665863611   -2.3246797129    0.1420827373
H       -2.7403098952    1.8621952976    2.5994058791
H       -1.5511717434   -1.9970265507    1.1084179672
H        0.7448922100    2.2763903480    3.1715003788
H       -0.8576680813    2.0369160797    4.1023411148
H        1.7835420308    0.3530008956    1.5498280889
H        0.8003350932   -1.1483687918    1.0266896765
H       -6.1708773933   -2.6853655263    0.1217809261
H       -5.6071015864   -1.9439008320   -1.4069094163
H       -7.3006188844   -1.7758220816   -0.9018778508
H        0.3377557032   -1.0659446522    4.5644374624
H       -1.4242770813   -0.7920288582    4.5325740616
H       -0.6852846613   -2.0258004246    3.4645543433
27   

C       -4.1911901676    0.7779265254    1.4568361824
C       -3.5194672300   -1.3742824164    0.6032284418
C       -2.9428060626    0.9388789192    2.0588595108
C       -2.2586034330   -1.2034484853    1.1921546382
C       -4.5042528527   -0.3794008216    0.7230724694
C       -1.9596511555   -0.0503933184    1.9379437312
C       -0.1440821327    1.6508981934    3.4619670482
C        0.9249775202   -0.2172726030    1.6606321158
C       -5.8567386907   -0.5116397673    0.0845874935
C       -6.2946459247   -1.8770409638   -0.4136132894
C       -0.5480383804   -1.0931775761    3.9091989907
O       -6.6435658704    0.4262891122    0.0575020513
S       -0.3073290009    0.2023519802    2.6788381135
H       -4.9292673758    1.5680113937    1.5580534167
H       -3.6992368147   -2.2806131970    0.0366167589
H       -2.7342718907    1.8521196575    2.6085330221
H       -1.5026704529   -1.9712597032    1.0596576338
H        0.7256947120    2.2662893636    3.2752877706
H       -0.8893236769    1.9828261441    4.1717395597
H        1.8089174210    0.4048376391    1.6115444970
H        0.8481265217   -1.0873741217    1.0243385573
H       -6.1083764927   -2.6363320863    0.3504462411
H       -5.7537679552   -2.1310372800   -1.3288978704
H       -7.3663271209   -1.8623079842   -0.6326197238
H        0.3301218858   -1.1200935291    4.5573548457
H       -1.4342053614   -0.8646106447    4.5042108996
H       -0.6632928722   -2.0565935756    3.4113571614
27   

C       -4.2158036208    0.7548841877    1.4525691634
C       -3.5019315319   -1.3574016490    0.5359401149
C       -2.9774949295    0.9122968964    2.0764391037
C       -2.2512601642   -1.1902765288    1.1468490621
C       -4.5035223185   -0.3835481669    0.6811245663
C       -1.9789010815   -0.0593428478    1.9358821709
C       -0.2058090319    1.6155304831    3.5379041091
C        0.9115911888   -0.1767291250    1.6893598368
C       -5.8368665386   -0.5055728006    0.0008454661
C       -6.3846560537   -1.8965271660   -0.2626681008
C       -0.5756223758   -1.1467783435    3.8886538209
O       -6.5558018323    0.4714078735   -0.1657919156
S       -0.3391727986    0.1920325079    2.7047548695
H       -4.9654449554    1.5326315678    1.5636693189
H       -3.6689217475   -2.2406504280   -0.0703474902
H       -2.7878364387    1.8104296748    2.6569711795
H       -1.4821854308   -1.9414864375    0.9961027357
H        0.6580544780    2.2480116796    3.3836266383
H       -0.9648451171    1.9140603927    4.2478618180
H        1.7877279680    0.4580181039    1.6730791109
H        0.8544741629   -1.0254084691    1.0227645207
H       -6.1614349815   -2.5567482079    0.5796081411
H       -5.9421063293   -2.3031295595   -1.1755548791
H       -7.4702188225   -1.8478003302   -0.3881421857
H        0.2954523684   -1.1831750094    4.5458449100
H       -1.4716019333   -0.9502020582    4.4803562344
H       -0.6716162117   -2.0945563652    3.3577933295
27   

C       -4.2040448795    0.7715035318    1.4036715598
C       -3.4455602006   -1.3090920752    0.4516645659
C       -2.9792897820    0.9299344000    2.0538998339
C       -2.2080270025   -1.1409136679    1.0882432121
C       -4.4628448900   -0.3540081309    0.6051976206
C       -1.9653754258   -0.0256489494    1.9091498749
C       -0.2484376004    1.6282066609    3.5923711792
C        0.9305657870   -0.0807646220    1.7040712888
C       -5.7763609643   -0.4697080041   -0.1167952431
C       -6.4578904304   -1.8245601312   -0.1369137747
C       -0.5686664736   -1.1500632131    3.8476750217
O       -6.3977294344    0.5277957770   -0.4593381171
S       -0.3422715841    0.2307910247    2.7110305034
H       -4.9653605844    1.5381275797    1.5120735234
H       -3.5972713912   -2.1759739488   -0.1820437033
H       -2.8108326728    1.8176170494    2.6566451366
H       -1.4259583041   -1.8773402739    0.9316321843
H        0.6060128597    2.2807541767    3.4731954305
H       -1.0243073752    1.8896446089    4.2987387355
H        1.7952763345    0.5693773516    1.7234326304
H        0.8984775705   -0.9063029182    1.0073849891
H       -6.3134596661   -2.3313090134    0.8209284248
H       -6.0414503354   -2.4380189902   -0.9396310711
H       -7.5306680632   -1.6975363546   -0.3084521023
H        0.2935770583   -1.1904336169    4.5161938608
H       -1.4767387182   -0.9904400323    4.4319689103
H       -0.6375948236   -2.0819289357    3.2853960517
27   

C       -4.1849188916    0.7088484222    1.3707632321
C       -3.3570585118   -1.3266086806    0.3753639737
C       -2.9762025901    0.8780316844    2.0482850469
C       -2.1359380388   -1.1468192149    1.0395747509
C       -4.3983977144   -0.4013977464    0.5408214817
C       -1.9367086153   -0.0496620584    1.8966714398
C       -0.2924429467    1.5935731434    3.6617060554
C        0.9641299589   -0.0292270681    1.7475403355
C       -5.6904743889   -0.5369377405   -0.2206793346
C       -6.4898002691   -1.8063875157   -0.0059985335
C       -0.5487225128   -1.1971456191    3.8279530449
O       -6.2126237994    0.4327364429   -0.7539287307
S       -0.3355682292    0.2220323370    2.7368249428
H       -4.9672581927    1.4536804902    1.4796685275
H       -3.4805927406   -2.1761706678   -0.2875251630
H       -2.8393332200    1.7528316086    2.6772894392
H       -1.3328808531   -1.8588193406    0.8763675964
H        0.5491940266    2.2682522909    3.5806500136
H       -1.0887318088    1.8160187394    4.3586114803
H        1.8134268673    0.6386983739    1.8053638241
H        0.9647345962   -0.8325829835    1.0246464492
H       -6.4254110189   -2.1164520321    1.0403279138
H       -6.0994457034   -2.6029949077   -0.6439368474
H       -7.5397518944   -1.6317868401   -0.2578259818
H        0.3016486644   -1.2364106128    4.5115760612
H       -1.4712413730   -1.0772018616    4.3989187743
H       -0.5837834241   -2.1132579429    3.2373481712
27   

C       -4.1889382395    0.6730713660    1.3286189340
C       -3.3027936965   -1.3228581968    0.3001728804
C       -2.9933364628    0.8519793282    2.0272112848
C       -2.0950317453   -1.1320471716    0.9850633922
C       -4.3627136529   -0.4216210022    0.4710180611
C       -1.9318101832   -0.0502492176    1.8694924697
C       -0.3537709824    1.5774733354    3.7079830344
C        0.9695462488    0.0524983570    1.7590735645
C       -5.6446736539   -0.5849912032   -0.3096826779
C       -6.5731713647   -1.6943565590    0.1375361557
C       -0.5342690003   -1.2223757164    3.7814007486
O       -6.0404350437    0.2880213398   -1.0693318781
S       -0.3486580604    0.2364214489    2.7384140298
H       -4.9893884401    1.3972464104    1.4424034947
H       -3.4031135623   -2.1596710004   -0.3827577608
H       -2.8833096243    1.7145151181    2.6780680780
H       -1.2748553966   -1.8231240665    0.8171856221
H        0.4711106227    2.2756802385    3.6610596983
H       -1.1648949621    1.7562555250    4.4003100738
H        1.8007648290    0.7390467693    1.8511410341
H        0.9992663009   -0.7246660762    1.0086228889
H       -6.5846976347   -1.7548843620    1.2289964282
H       -6.2338720082   -2.6486474742   -0.2726103317
H       -7.5887387290   -1.4950282281   -0.2162216322
H        0.3085280415   -1.2591425705    4.4744929542
H       -1.4667297826   -1.1471159212    4.3437330037
H       -0.5352451941   -2.1199309785    3.1619725782
27   

C       -4.2082851496    0.6010470877    1.2988814347
C       -3.2460152111   -1.3239299654    0.2012285185
C       -3.0242271776    0.7910898811    2.0146392158
C       -2.0513021252   -1.1209178522    0.9046746282
C       -4.3294766277   -0.4541858033    0.3850354507
C       -1.9309733380   -0.0676061164    1.8299018398
C       -0.4193106310    1.5464613503    3.7343618169
C        0.9679330214    0.1183143791    1.7565822849
C       -5.6149615507   -0.6744051349   -0.3797598735
C       -6.6451603233   -1.5605455924    0.2877461745
C       -0.5229357612   -1.2584727724    3.7212684542
O       -5.7670394487   -0.2657194886   -1.5219210151
S       -0.3656203802    0.2358930042    2.7250673962
H       -5.0360921183    1.2866368339    1.4466050012
H       -3.3206370940   -2.1403006164   -0.5096691449
H       -2.9488692055    1.6269067982    2.7041249672
H       -1.2093479222   -1.7811261710    0.7210923062
H        0.3858072194    2.2687238399    3.7170314854
H       -1.2414442875    1.6810156171    4.4236310367
H        1.7786366055    0.8243741392    1.8788353697
H        1.0279200030   -0.6351575795    0.9840355472
H       -7.1074627161   -1.0256893099    1.1212567367
H       -6.1688200978   -2.4697490475    0.6637387850
H       -7.4199399621   -1.8374285447   -0.4329174108
H        0.3139791861   -1.2948997133    4.4214697891
H       -1.4622938536   -1.2247006131    4.2760495699
H       -0.4948177071   -2.1362469116    3.0746505970
27   

C       -4.2110872571    0.5283443786    1.3014836695
C       -3.1639766785   -1.3300375306    0.1640888181
C       -3.0404327861    0.7458461082    2.0317363378
C       -1.9839238894   -1.0983272191    0.8826965244
C       -4.2782694235   -0.5000400064    0.3514471683
C       -1.9122050542   -0.0636403846    1.8338639946
C       -0.4840410861    1.5541630166    3.7977744194
C        0.9770663404    0.2409640756    1.7940245303
C       -5.5526347132   -0.7931453204   -0.4023735752
C       -6.6777805187   -1.4133370126    0.4002738803
C       -0.4731178313   -1.2516155829    3.7047209474
O       -5.5776670011   -0.8106493556   -1.6251078308
S       -0.3680878857    0.2758983376    2.7527345308
H       -5.0689391934    1.1706982084    1.4694485642
H       -3.2066919219   -2.1357165975   -0.5620538944
H       -3.0041490310    1.5628181117    2.7465136524
H       -1.1170827247   -1.7235769338    0.6927409194
H        0.2906348070    2.3091224789    3.8078762010
H       -1.3158785825    1.6345798230    4.4838241945
H        1.7570961881    0.9756915462    1.9436824781
H        1.0742450191   -0.4873567699    1.0013460865
H       -7.2249034912   -0.6326196566    0.9343193706
H       -6.2734822690   -2.1278867122    1.1221103280
H       -7.3666260612   -1.9375723623   -0.2682057327
H        0.3582032831   -1.2741354591    4.4121345274
H       -1.4180564394   -1.2721685346    4.2505881167
H       -0.4031743400   -2.1087342596    3.0339795447
27   

C       -4.2214545655    0.4386150579    1.3291728497
C       -3.1124549210   -1.3531654813    0.1398591527
C       -3.0550983464    0.6788512595    2.0595346102
C       -1.9386245592   -1.0973498334    0.8599552710
C       -4.2548099593   -0.5660383003    0.3514405747
C       -1.8994448546   -0.0843645786    1.8361017476
C       -0.5179412887    1.5384006363    3.8281534517
C        0.9770099531    0.3175409701    1.7912993141
C       -5.5109527480   -0.9022391278   -0.4071604098
C       -6.7359247782   -1.2563795636    0.4126320418
C       -0.4141409601   -1.2640389156    3.6755604189
O       -5.4753186937   -1.1661960959   -1.6015915835
S       -0.3635204906    0.2863344680    2.7566349614
H       -5.1000805820    1.0452939215    1.5200402277
H       -3.1297104792   -2.1437914694   -0.6040751673
H       -3.0441010368    1.4774767182    2.7955515436
H       -1.0515165557   -1.6874515726    0.6519821503
H        0.2296574429    2.3199729768    3.8490468831
H       -1.3472868612    1.5751404373    4.5208993065
H        1.7313525990    1.0764682260    1.9514153468
H        1.0960504259   -0.3920943370    0.9847535515
H       -7.2494093844   -0.3438507932    0.7251127533
H       -6.4423341877   -1.8273045675    1.2974914056
H       -7.4216106064   -1.8625189830   -0.1862772108
H        0.4212378143   -1.2751311773    4.3784470844
H       -1.3550231462   -1.3270618128    4.2251707224
H       -0.3203673147   -2.1037324278    2.9859104041
27   

C       -4.2961852144    0.3516058040    1.3414190839
C       -3.1272404915   -1.3842180745    0.1243676548
C       -3.1325872184    0.6314719227    2.0621803841
C       -1.9577015193   -1.0869057336    0.8350601231
C       -4.3010067146   -0.6484120983    0.3566431149
C       -1.9499286285   -0.0832551836    1.8212019221
C       -0.6203617966    1.5624668375    3.8290456794
C        0.9055622965    0.4437476086    1.7570597978
C       -5.5420513108   -1.0362612518   -0.3973081660
C       -6.8409699635   -1.1209980262    0.3814338932
C       -0.3964270962   -1.2301029943    3.6259203085
O       -5.4769445007   -1.5054360005   -1.5262974552
S       -0.4223252971    0.3368791102    2.7343150784
H       -5.1934959743    0.9241665976    1.5491525292
H       -3.1166213407   -2.1705048685   -0.6244913781
H       -3.1456415767    1.4230339244    2.8057782404
H       -1.0498417527   -1.6390312549    0.6128599363
H        0.0925735933    2.3755605428    3.8568866161
H       -1.4432166369    1.5503196227    4.5303732273
H        1.6276691069    1.2320936249    1.9234797499
H        1.0472215195   -0.2462092128    0.9371843330
H       -7.2846603949   -0.1265101782    0.4728033468
H       -6.6555433277   -1.5299486529    1.3782100816
H       -7.5443246394   -1.7758157082   -0.1409512224
H        0.4443741821   -1.2163557602    4.3222564733
H       -1.3290282106   -1.3447320040    4.1812951923
H       -0.2710826802   -2.0527571510    2.9209105525
27   

C       -4.2787097610    0.2829973651    1.3649734631
C       -3.0656867710   -1.3854433415    0.0992538722
C       -3.1222106009    0.5729426404    2.0928877684
C       -1.9038173718   -1.0768771691    0.8177261059
C       -4.2621715046   -0.6938405679    0.3547484390
C       -1.9217277294   -0.1029494603    1.8324560169
C       -0.6370780677    1.5197895641    3.8864738512
C        0.9174274977    0.5027845370    1.7836412449
C       -5.4874695608   -1.0830761863   -0.4210336051
C       -6.8421701634   -0.9075195046    0.2405136241
C       -0.3378425588   -1.2600000391    3.6038927791
O       -5.4039916422   -1.6947970239   -1.4787126154
S       -0.4056315127    0.3309768429    2.7581759023
H       -5.1855492982    0.8324786552    1.5917366775
H       -3.0296862257   -2.1498160942   -0.6712357500
H       -3.1552628493    1.3432612459    2.8578790281
H       -0.9816522406   -1.5975110189    0.5790378935
H        0.0515597398    2.3525799002    3.9355347582
H       -1.4572865908    1.4637765225    4.5887936292
H        1.6160624155    1.3075084574    1.9705819824
H        1.0787710768   -0.1611993004    0.9461535585
H       -7.1632246219    0.1339907371    0.1582851571
H       -6.7879512844   -1.1927771510    1.2944863786
H       -7.5804677327   -1.5446942676   -0.2549334197
H        0.5021870685   -1.2441142325    4.3011085664
H       -1.2671313878   -1.4156825713    4.1548434005
H       -0.1906219457   -2.0581877892    2.8753667869
27   

C       -4.2962965928    0.1854997229    1.4149331833
C       -3.0580998122   -1.4288913767    0.1066182327
C       -3.1352459301    0.5018295986    2.1242746820
C       -1.8925465432   -1.0932514890    0.8066048671
C       -4.2734160238   -0.7826666104    0.3939489345
C       -1.9203058374   -0.1332885193    1.8335246798
C       -0.6487520489    1.5038525640    3.8829615387
C        0.8951089317    0.5650864206    1.7364878064
C       -5.4960897906   -1.1869897160   -0.3779003455
C       -6.8562215643   -0.7616630620    0.1442899676
C       -0.2655903007   -1.2622487991    3.5577417689
O       -5.4240100543   -1.9285546899   -1.3501060191
S       -0.4007902596    0.3367469877    2.7356281337
H       -5.2095019742    0.7107385391    1.6702785029
H       -3.0095150287   -2.1816702816   -0.6745109746
H       -3.1768318342    1.2622692446    2.8986910947
H       -0.9596124458   -1.5817847045    0.5431928292
H        0.0112548807    2.3597664634    3.9273515962
H       -1.4508243943    1.4108175980    4.6021222399
H        1.5688624585    1.3919227017    1.9181943607
H        1.0624354252   -0.0842776212    0.8887806302
H       -6.9989640444    0.3098712332   -0.0178038285
H       -6.9398019813   -0.9891063266    1.2102685335
H       -7.6419545594   -1.3049514035   -0.3887360557
H        0.5870543601   -1.2286495455    4.2388154961
H       -1.1784592434   -1.4550397303    4.1242173137
H       -0.1074890574   -2.0456090751    2.8155244505
27   

C       -4.3245497465    0.0955210552    1.5115963229
C       -3.0507774419   -1.4597438246    0.1661995464
C       -3.1613644283    0.4574026494    2.1949864430
C       -1.8842513785   -1.0781736235    0.8406442018
C       -4.2860644653   -0.8679406952    0.4859563786
C       -1.9280762790   -0.1243608872    1.8725834575
C       -0.6794621060    1.5609067542    3.8959892369
C        0.8525855819    0.6891752221    1.7130508115
C       -5.5055591273   -1.3108677551   -0.2699716271
C       -6.8432210348   -0.6783921397    0.0675495393
C       -0.1909590149   -1.1878535951    3.5560884582
O       -5.4431344255   -2.1685684189   -1.1422998683
S       -0.4090799124    0.4057991411    2.7415531387
H       -5.2515262225    0.5799817655    1.7956674400
H       -2.9876163545   -2.2059582440   -0.6201594022
H       -3.2167813911    1.2116487771    2.9745687821
H       -0.9380251286   -1.5258107990    0.5530787694
H       -0.0562839311    2.4446172402    3.9254769388
H       -1.4590185154    1.4330003561    4.6343149168
H        1.4938778536    1.5445321069    1.8795871778
H        1.0288905259    0.0467064288    0.8619317108
H       -6.8021415086    0.4001161706   -0.1061360110
H       -7.0993656700   -0.8766873395    1.1115487272
H       -7.6236357857   -1.1043599522   -0.5697975751
H        0.6746343652   -1.1211125628    4.2181082041
H       -1.0824418575   -1.4184600256    4.1421822288
H       -0.0181997635   -1.9628259679    2.8083421964
