25

C      1.45305    1.09859    0.85437
C      0.09323    0.96351    0.55713
C      1.86953    1.80121    2.00211
C     -0.79620    1.55672    1.45510
C     -0.24901    2.23875    2.57022
C     -2.47613    2.32823    2.56673
C     -3.87151    2.66171    3.04068
C     -5.22624    2.33468   -0.26576
C     -5.01626    3.17533    0.98545
N      1.03415    2.38403    2.87970
N     -2.18557    1.62925    1.48993
N     -1.35130    2.72644    3.26189
O     -4.03795    1.72944   -0.74528
O     -4.85889    2.29415    2.11536
H      2.20488    0.66389    0.20264
H     -0.25674    0.42987   -0.32196
H      2.93064    1.89841    2.22156
H     -4.07843    2.09779    3.95830
H     -3.92143    3.73196    3.30000
H     -5.60485    2.98305   -1.06466
H     -6.00092    1.58308   -0.04723
H     -5.88706    3.82016    1.16877
H     -4.12819    3.80661    0.85920
H     -1.31534    3.26843    4.11619
H     -3.48510    1.47523    0.02565
