34

C      2.55179   -2.26319   -2.56999
C      3.50855   -1.45555   -1.94253
C      2.08350   -3.43815   -1.96792
C      4.02162   -1.80386   -0.68456
C     -1.95836   -8.29512   -2.25707
C     -1.61830   -7.27889   -4.88478
C      2.59730   -3.79110   -0.71678
C     -0.90244   -7.37578   -2.52455
C     -2.80327   -8.65520   -3.27939
C     -2.63903   -8.15403   -4.57115
C      3.54677   -2.96820   -0.10583
C     -0.75252   -6.89622   -3.84326
C      2.30608   -4.94654    0.17952
C     -0.06788   -7.04625   -1.36868
C     -4.48031   -9.43041   -4.54870
N      2.93066   -5.01242    1.32392
N      0.74408   -6.04978   -1.28209
N      1.41480   -5.93899   -0.10370
O      5.36149   -4.14791    1.49265
O      3.50117   -2.82125    2.57624
O     -3.86345   -9.53106   -3.25339
O     -3.58600   -8.68878   -5.40367
S      3.97459   -3.68322    1.49312
Cl     0.55348   -5.82503   -4.30513
H      2.16299   -1.97517   -3.54274
H      3.85561   -0.54960   -2.43177
H      1.34626   -4.06073   -2.45497
H      4.75954   -1.18582   -0.18206
H     -2.09480   -8.69461   -1.25685
H     -1.47708   -6.90437   -5.89216
H     -0.19806   -7.72047   -0.51134
H     -4.62335  -10.43126   -4.96100
H     -5.42774   -8.88495   -4.46097
H      1.30912   -6.64953    0.62383
