43

C      5.97570   -2.83566   -4.87866
C      7.01594   -3.19727   -5.70958
C      8.43587   -1.45541   -4.74936
C      6.38932    0.28340   -2.15436
C      7.36775   -1.08139   -3.89536
C      6.11792   -1.77040   -3.94939
C      7.47244   -0.01930   -2.94983
C      8.23467   -2.49286   -5.62631
C      5.18920   -0.47131   -2.28985
C     -0.91936   -1.48890   -3.07171
C     -1.28215   -0.81803   -0.79848
C      1.80836   -0.76727   -0.48563
C      2.11415   -1.38636   -2.48020
C     -2.19504   -0.75152   -3.46600
C     -2.55065   -0.09517   -1.24086
C      0.91586   -1.50789   -1.50994
C      4.00226   -0.08327   -1.42900
N      5.05081   -1.45716   -3.15321
N     -0.31590   -0.84765   -1.89980
N      2.98879   -1.10718   -1.31386
O     -3.13013   -0.71311   -2.38869
O      8.66710    0.63811   -2.89169
F      9.24214   -2.87029   -6.45637
H      5.02313   -3.35525   -4.91059
H      6.92189   -4.00952   -6.42408
H      9.38716   -0.93658   -4.71220
H      6.44211    1.08602   -1.42045
H     -1.15879   -2.55108   -2.87354
H     -0.20790   -1.45562   -3.90415
H     -0.83989   -0.28734    0.05230
H     -1.54315   -1.83932   -0.46108
H      1.57348    0.30993   -0.48175
H      1.85037   -1.14108    0.54343
H      2.41318   -2.25643   -3.06635
H      1.99528   -0.51546   -3.14400
H     -1.94472    0.27363   -3.77985
H     -2.69711   -1.26201   -4.29204
H     -3.30986   -0.13039   -0.45505
H     -2.31515    0.95739   -1.46207
H      0.74787   -2.55687   -1.20984
H      4.36188    0.15221   -0.41942
H      3.58856    0.86388   -1.83711
H      8.61800    1.33354   -2.21555
