21

C      0.60480   -1.93865    0.06731
C     -0.22706   -1.08832    0.79800
C      1.99498   -1.77472    0.08741
C      1.71012    0.12020    1.59720
C      0.32136   -0.05080    1.56851
C      2.51460   -0.74228    0.85803
C     -1.27696    0.13644    3.50037
C     -0.58482    0.86652    2.36973
N     -2.47737   -0.33244    3.47738
N     -0.50608   -0.11718    4.63507
O     -3.08446   -0.15198    2.19556
F      3.86297   -0.56211    0.89488
H      0.17170   -2.73923   -0.52648
H     -1.30439   -1.22348    0.78345
H      2.66135   -2.42290   -0.47328
H      2.17469    0.90908    2.18234
H      0.00303    1.68890    2.79199
H     -1.35045    1.29951    1.72350
H      0.07257    0.66209    4.93066
H     -1.04823   -0.50525    5.40170
H     -3.98078   -0.48624    2.35618
