32

C     -2.89298   -2.24422    1.81760
C      1.92197    1.08903   -1.37760
C      1.08933   -0.17672   -1.13663
C      0.02175    0.19756    1.21745
C     -1.35131   -0.50691   -0.22527
C      0.82217    2.13718   -1.58096
C     -0.08443    0.36911   -0.32277
C     -3.36822   -4.61237    1.48104
C     -1.06468   -3.93189    2.06469
C     -1.88749   -1.13406    2.14857
N     -0.88245   -0.97354    1.10784
N     -2.42467   -3.52895    1.72862
O     -4.07875   -1.95471    1.63210
O     -0.29521    1.70232   -0.78094
H      2.52002    1.32733   -0.49111
H      2.59644    1.01257   -2.23474
H      0.72261   -0.57870   -2.08852
H      1.62454   -0.97277   -0.61389
H      1.00362   -0.01550    1.65776
H     -0.44029    1.05585    1.72768
H     -2.25643    0.11387   -0.17102
H     -1.48952   -1.30077   -0.96686
H      1.11024    3.14136   -1.25543
H      0.50843    2.18722   -2.63234
H     -3.01690   -5.23240    0.64784
H     -4.33964   -4.18609    1.23614
H     -3.46885   -5.24996    2.36956
H     -1.00413   -4.32031    3.09149
H     -0.37816   -3.09705    1.93641
H     -0.74978   -4.72970    1.38314
H     -2.49217   -0.22575    2.29057
H     -1.37771   -1.35160    3.09572
