41

C      5.46772   -2.66699    3.14829
C      4.35212   -2.16759    3.83047
C      5.29876   -3.26774    1.89761
C      3.07795   -2.26707    3.26678
C      4.02207   -3.36378    1.33361
C      2.90025   -2.86582    2.01007
C      0.69850   -1.69741    1.54768
C     -0.08246    1.33858   -0.40359
C      1.34761   -1.26581   -1.66247
C      0.24530    0.60416    0.90107
C      1.97004   -0.72895   -0.36463
C     -1.74093   -0.50937   -1.19254
C     -0.63017    0.49824   -1.56725
C      0.42390   -0.27731   -2.38249
C      1.51236   -2.98433    1.40303
N     -1.92667   -1.41679   -2.34880
N      0.99620   -0.64223    0.72023
O     -0.17828   -1.61813    2.41348
O     -0.19973   -2.51722   -3.90257
O     -1.15947   -0.25017   -4.54045
S     -0.69957   -1.19026   -3.51726
H      6.45840   -2.58938    3.58845
H      4.47500   -1.70180    4.80499
H      6.15775   -3.66133    1.36018
H      2.21363   -1.88120    3.80167
H      3.89794   -3.83527    0.36040
H     -0.82563    2.10341   -0.15032
H      0.79046    1.89200   -0.76706
H      2.13932   -1.56222   -2.35764
H      0.80295   -2.18334   -1.42274
H      0.80787    1.28259    1.55667
H     -0.66751    0.34242    1.43614
H      2.79590   -1.37278   -0.06209
H      2.40916    0.26112   -0.51862
H     -1.46589   -1.08658   -0.30596
H     -2.67492    0.01991   -0.98323
H     -1.06916    1.20830   -2.27623
H      0.99373    0.41030   -3.01179
H      1.58999   -3.30417    0.36068
H      0.93539   -3.74472    1.93536
H     -1.96966   -2.40350   -2.10706
