43

C     -1.44985   -7.02982   -0.04987
C     -0.06072   -7.17725    0.13930
C     -2.13164   -5.95273    0.51671
C      0.68108   -6.25306    0.87969
C     -1.39660   -5.03450    1.27030
C     -0.01546   -5.17473    1.43058
C     -1.81612   -3.82041    1.99615
C     -1.12936   -0.84776    2.21658
C     -0.83142    1.10079   -0.59624
C     -1.79386    0.12211    0.08136
C     -0.10764   -1.64990    0.05744
C      0.93971   -0.71779   -0.58783
C      0.23269    0.37532   -1.43280
C      1.89934   -0.16694    0.47762
C      1.21687    1.37366   -2.04944
C     -0.46457   -1.97164    3.04342
N      0.50517   -4.08289    2.16615
N     -0.64416   -3.34383    2.58765
N     -1.05672   -0.87968    0.85660
O     -2.91215   -3.27881    2.08074
O     -1.69769    0.04806    2.84308
O     -0.50649   -0.27166   -2.49594
H     -1.98858   -7.76559   -0.64001
H      0.44911   -8.02624   -0.30844
H     -3.20266   -5.82118    0.39199
H      1.75434   -6.36573    1.00769
H     -1.39296    1.77269   -1.25390
H     -0.34147    1.71593    0.16485
H     -2.46904    0.64278    0.75825
H     -2.38337   -0.40541   -0.67551
H     -0.66192   -2.18405   -0.72149
H      0.40887   -2.38514    0.66861
H      1.52897   -1.33305   -1.28454
H      1.38039    0.46815    1.20181
H      2.70868    0.41974    0.03550
H      2.35939   -0.99364    1.03035
H      2.00618    0.85468   -2.60889
H      1.69853    1.99791   -1.29212
H      0.68058    2.02901   -2.74214
H     -0.88861   -1.85614    4.04214
H      0.61099   -1.78697    3.10783
H      1.03624   -4.38150    2.98587
H      0.13390   -0.71411   -3.07603
