23

C     -1.54248    1.32628   -2.17466
C     -2.32168    0.30141   -1.56945
C     -0.40648    1.62597   -1.45892
C     -1.77100   -0.17005   -0.39229
C     -4.76465   -3.61509    0.84472
C     -6.64380   -4.39112    0.06058
C     -2.25601   -1.19991    0.50790
N     -4.76033   -4.90724    1.04320
N     -5.97531   -5.40416    0.55255
N     -3.39150   -1.77829    0.31805
N     -5.92923   -3.21476    0.22788
N     -6.37359   -1.92764   -0.11103
N     -3.78224   -2.71836    1.25496
S     -0.27479    0.65796   -0.03361
S     -8.21721   -4.47339   -0.71847
H     -1.80447    1.82047   -3.10440
H     -3.24463   -0.09243   -1.98022
H      0.35888    2.35576   -1.68980
H     -1.61728   -1.46995    1.35843
H     -5.61024   -1.46726   -0.60731
H     -6.52866   -1.40777    0.75426
H     -3.04092   -3.18860    1.77719
H     -8.24784   -3.14509   -0.96848
