39

C      2.98716   -4.42009    5.60132
C      3.91462    2.66632   -3.82282
C      3.79602   -3.48082    4.99521
C      3.47720    1.67243   -2.94700
C      1.58045   -4.37160    5.44239
C      3.34184   -0.48382    2.80405
C      3.00213    3.64217   -4.23636
C      1.32381    2.70886   -2.98925
C      3.21520   -2.45753    4.20328
C      2.14683    1.67951   -2.50802
C      1.79831   -2.38273    4.02211
C      3.98342   -1.44800    3.55393
C      1.01884   -3.37827    4.67603
C      1.92636   -0.52127    2.68475
C      0.51986    0.96398   -0.54711
C      2.46776    0.18556   -0.36004
C      1.61904    0.61790   -1.58581
C      1.22212    0.50108    1.81728
N      1.72532    3.67106   -3.83140
N      1.17322   -1.43162    3.27532
N      1.21522    0.08598    0.42060
O      5.33652   -1.49568    3.72346
F     -0.32104   -3.33789    4.53097
H      3.42381   -5.20770    6.20874
H      4.94040    2.68988   -4.18055
H      4.87356   -3.51048    5.11434
H      4.16167    0.89832   -2.60592
H      0.93412   -5.10516    5.91479
H      3.90470    0.30468    2.30862
H      3.30914    4.43308   -4.91917
H      0.28137    2.76015   -2.67615
H      0.55613    2.02891   -0.26298
H     -0.51473    0.67886   -0.76330
H      3.05027   -0.73929   -0.42255
H      3.12206    1.00960   -0.02444
H      1.32193   -0.26634   -2.15877
H      0.18501    0.57295    2.15407
H      1.69812    1.49365    1.94135
H      5.74423   -0.75609    3.24389
