39

C      5.00968   -3.74734    4.95231
C     -4.43333   -0.13247   -1.17894
C      3.65386   -3.50781    5.04329
C     -3.14573   -0.55975   -0.85382
C      5.81745   -2.99580    4.06400
C      1.17251   -1.19278    3.47074
C     -4.58383    1.08135   -1.85714
C     -2.32108    1.43091   -1.88837
C      3.06131   -2.50126    4.23872
C     -2.04730    0.23286   -1.21146
C      3.84972   -1.72667    3.33076
C      1.67126   -2.19014    4.28318
C      5.24203   -2.01942    3.28616
C      2.05326   -0.50044    2.59655
C     -0.30612   -0.77074    0.49433
C      0.44656    0.86801   -0.59327
C     -0.63963   -0.19409   -0.90782
C      1.50126    0.55614    1.66244
N     -3.55025    1.85727   -2.21031
N      3.34886   -0.74821    2.52774
N      0.98198   -0.04537    0.44113
O      0.90377   -2.91082    5.15121
F      6.01793   -1.30723    2.44430
H      5.47142   -4.51700    5.56417
H     -5.30615   -0.72320   -0.91438
H      3.02972   -4.07780    5.72278
H     -2.99369   -1.49935   -0.32644
H      6.88534   -3.17535    3.98420
H      0.11737   -0.92804    3.49488
H     -5.57412    1.44578   -2.12646
H     -1.50150    2.08405   -2.18673
H     -0.99631   -0.37081    1.25819
H     -0.22299   -1.85606    0.61144
H      1.15909    1.13852   -1.37909
H      0.00245    1.78366   -0.16843
H     -0.27656   -0.87670   -1.68284
H      0.72421    1.15069    2.18194
H      2.32006    1.22589    1.38820
H     -0.01535   -2.60195    5.09624
