39

C     -2.90486   -5.62408    4.52947
C      3.32364   -1.46996   -0.51117
C     -3.87954   -4.80085    4.00136
C      2.19456   -0.91788    0.09121
C     -1.53411   -5.29655    4.39592
C     -4.00751   -1.58165    2.10033
C      4.49694   -0.70941   -0.57169
C      3.49879    1.04658    0.50114
C     -3.50584   -3.61635    3.31864
C      2.27002    0.38180    0.61629
C     -2.13102   -3.26062    3.16538
C     -4.45301   -2.71324    2.74811
C     -1.17498   -4.14703    3.73200
C     -2.60838   -1.33790    2.00645
C      0.22021    0.13420    2.17466
C     -0.18416    1.15642    0.37574
C      1.09102    1.05117    1.26759
C     -2.14361   -0.07233    1.31137
N      4.59439    0.53078   -0.07538
N     -1.69868   -2.14086    2.51967
N     -0.72610   -0.04268    1.04799
O     -5.77082   -3.03847    2.88320
F      0.13349   -3.83884    3.60813
H     -3.18275   -6.53348    5.05445
H      3.30287   -2.47414   -0.92618
H     -4.93143   -5.04541    4.10063
H      1.26260   -1.47411    0.15908
H     -0.75854   -5.93541    4.80741
H     -4.70960   -0.87797    1.65564
H      5.39535   -1.11435   -1.03589
H      3.60454    2.05593    0.90072
H      0.66036   -0.79414    2.54255
H     -0.21943    0.68831    3.02010
H     -0.75373    2.07610    0.59263
H     -0.05310    1.05596   -0.70755
H      1.40096    1.99384    1.72331
H     -2.67411    0.02060    0.35491
H     -2.47033    0.79144    1.92988
H     -6.31449   -2.35509    2.45810
