39

C      3.10666   -1.63522    6.93244
C      2.02663    5.64356   -2.95746
C      2.69948   -2.06799    5.68724
C      1.38276    4.57294   -2.33585
C      2.98882   -0.27202    7.29338
C      1.19097   -0.54872    2.60344
C      3.42420    5.68237   -2.94478
C      3.54328    3.72169   -1.76881
C      2.15388   -1.15217    4.74827
C      2.14845    3.57499   -1.72026
C      2.02458    0.23301    5.09026
C      1.70780   -1.51561    3.43894
C      2.46361    0.61931    6.38907
C      1.11660    0.78954    3.05895
C      0.22293    2.57495   -0.21830
C      2.13122    1.79849    0.23617
C      1.51274    2.38449   -1.06052
C      0.52285    1.85950    2.16402
N      4.17922    4.74100   -2.36179
N      1.52212    1.18115    4.25687
N      0.75584    1.59502    0.75538
O      1.77166   -2.79554    2.97367
F      2.35419    1.91628    6.73668
H      3.52201   -2.34018    7.64648
H      1.46159    6.43558   -3.44128
H      2.80706   -3.12427    5.44829
H      0.29640    4.51466   -2.32613
H      3.30507    0.08335    8.26919
H      0.84939   -0.80197    1.60612
H      3.95946    6.50338   -3.41957
H      4.18278    2.97437   -1.29937
H      0.15951    3.59626    0.19089
H     -0.73870    2.30111   -0.66561
H      2.73341    0.88769    0.16087
H      2.69094    2.55934    0.80287
H      1.36197    1.58534   -1.79381
H     -0.56300    1.88593    2.32785
H      0.92291    2.83359    2.49167
H      2.14682   -3.37873    3.65138
