23

C     -1.86023    1.61330   -3.05394
C     -2.44192    0.60631   -2.23443
C     -0.55136    1.34495   -3.38154
C     -1.56777   -0.42514   -1.94628
C     -4.12045   -3.17649    0.93118
C     -6.16266   -3.15851    1.67711
C     -1.77868   -1.62123   -1.15191
N     -4.08556   -3.64157    2.15355
N     -5.40440   -3.64653    2.62988
N     -2.93069   -1.89675   -0.64509
N     -5.40815   -2.85219    0.56464
N     -5.91918   -2.37763   -0.65416
N     -3.03921   -3.08051    0.06089
S     -0.01241   -0.14504   -2.69161
S     -7.90007   -2.88371    1.70302
H     -2.38327    2.50419   -3.38567
H     -3.45719    0.63350   -1.85477
H      0.12455    1.93778   -3.98433
H     -0.91774   -2.28406   -0.99726
H     -5.81387   -3.11740   -1.34988
H     -5.32637   -1.60024   -0.94426
H     -2.18513   -3.45312    0.47929
H     -8.00472   -3.33389    2.97029
