43

C      1.69941   -1.84331    8.48506
C      1.89443   -0.44839    8.40250
C      1.33325   -2.57324    7.35497
C      1.74568    0.24507    7.20013
C      1.16762   -1.88278    6.15086
C      1.38815   -0.50051    6.07142
C      0.76963   -2.34890    4.81198
C     -0.23431   -0.06865    2.08590
C     -0.56608    1.76727   -0.83759
C     -1.37674    0.96031    0.18054
C      0.00566   -1.02200   -0.22912
C      0.90363   -0.26835   -1.23073
C      0.08747    0.87169   -1.90074
C      2.20681    0.19642   -0.56470
C      0.92668    1.70467   -2.87332
C      0.69309   -1.17261    2.61646
N      1.22926   -0.05769    4.74814
N      0.71480   -1.18424    4.05310
N     -0.55034   -0.10252    0.76376
O      0.54217   -3.48104    4.38185
O     -0.64985    0.81230    2.85095
O     -1.02086    0.28112   -2.61960
H      1.83328   -2.34539    9.43903
H      2.17411    0.10158    9.29747
H      1.16857   -3.64631    7.39449
H      1.90945    1.31778    7.14417
H     -1.22315    2.48363   -1.34137
H      0.20842    2.33879   -0.31664
H     -1.73397    1.59244    0.99178
H     -2.23684    0.49516   -0.31197
H     -0.82717   -1.48929   -0.76447
H      0.57304   -1.81444    0.25657
H      1.16703   -0.98305   -2.02417
H      2.02045    0.91561    0.23859
H      2.88529    0.66400   -1.28235
H      2.73502   -0.65824   -0.12879
H      1.43562    1.06299   -3.60412
H      1.68946    2.29438   -2.35827
H      0.27289    2.39243   -3.41768
H      1.70426   -1.02169    2.21380
H      0.35521   -2.16965    2.32513
H      0.58402    0.72295    4.60514
H     -0.65803   -0.22928   -3.36146
