20   
Generated by ForceBalance from scan.xyz: Frame 1 of 24
C        1.6809058321   -0.4847697256    1.5083258981
C        0.1552553723   -0.1669579259    1.8373200121
C        1.8363674194   -0.4333485646   -0.0775129844
C       -0.4499066770   -0.4033538015    0.4575500090
C        0.5677436685    0.3344488071   -0.4365979760
C       -0.9028665571    0.2287709695   -0.8501129390
C       -1.6770044906    1.5244046554   -0.9252628941
O       -1.3905298278   -0.6423544716   -1.8354992675
H        2.3424223321    0.2448632474    1.9867182047
H        1.9648261311   -1.4690821847    1.8955339643
H       -0.2390363736   -0.8266554063    2.6176833214
H        0.0316090916    0.8662077411    2.1747627281
H        2.7580880768    0.0762403137   -0.3776331376
H        1.8591157385   -1.4417919500   -0.5018447010
H       -0.3484177517   -1.4755024299    0.2442105499
H        0.6810107086    1.3494212100   -0.0483776577
H       -1.5127670054    2.0073282360   -1.8935649654
H       -1.3777489915    2.2109897939   -0.1305585441
H       -2.7436561129    1.3076617098   -0.8190868629
H       -1.0749707558   -1.5397916885   -1.6447367588
20   
Generated by ForceBalance from scan.xyz: Frame 2 of 24
C        1.6737560741   -0.4923629975    1.4957851916
C        0.1426458464   -0.1850357446    1.8108325972
C        1.8457469283   -0.4269681717   -0.0879255209
C       -0.4444369501   -0.4139971544    0.4225452204
C        0.5779799943    0.3384399235   -0.4543046194
C       -0.8887899938    0.2289795394   -0.8801085435
C       -1.6660345508    1.5244492174   -0.9464986824
O       -1.3596175565   -0.6391262485   -1.8799062509
H        2.3256982645    0.2367947269    1.9878470715
H        1.9586137994   -1.4783887359    1.8780326944
H       -0.2567935164   -0.8529170691    2.5816178292
H        0.0097173725    0.8447957209    2.1546989662
H        2.7681377195    0.0897063126   -0.3734094743
H        1.8765740498   -1.4308819025   -0.5217923403
H       -0.3268484283   -1.4826664916    0.1997823466
H        0.6823345771    1.3498923522   -0.0545176561
H       -1.5173201608    2.0039832076   -1.9190790017
H       -1.3565016036    2.2163205431   -0.1601429675
H       -2.7307481683    1.3062319794   -0.8249905890
H       -1.2509270032   -1.5545873875   -1.5803047018
20   
Generated by ForceBalance from scan.xyz: Frame 3 of 24
C        1.6797767325   -0.4874932567    1.5024919227
C        0.1440942991   -0.1953143940    1.8121369444
C        1.8581259341   -0.4107176382   -0.0803917073
C       -0.4335244789   -0.4233181522    0.4197432017
C        0.5861796766    0.3467997189   -0.4456775526
C       -0.8743318727    0.2253575980   -0.8800418249
C       -1.6569774378    1.5183224273   -0.9520102249
O       -1.3119444504   -0.6530094558   -1.8910491945
H        2.3225985996    0.2443675726    2.0025750358
H        1.9713679494   -1.4733382865    1.8801847938
H       -0.2525928671   -0.8716382401    2.5770474015
H        0.0000219344    0.8310767860    2.1616300525
H        2.7771270239    0.1160525326   -0.3581206141
H        1.8975013650   -1.4108327142   -0.5215644713
H       -0.2986036906   -1.4869574662    0.1868711951
H        0.6802405073    1.3558445774   -0.0372959240
H       -1.5008072772    1.9958044066   -1.9244264993
H       -1.3583008900    2.2140870510   -0.1644726831
H       -2.7227241304    1.2981748574   -0.8412056836
H       -1.4241345147   -1.5377699943   -1.5135965010
20   
Generated by ForceBalance from scan.xyz: Frame 4 of 24
C        1.6814521333   -0.4902716318    1.4931483873
C        0.1438684358   -0.2056282495    1.8019549386
C        1.8606319418   -0.4041638921   -0.0890808730
C       -0.4321414431   -0.4343099893    0.4091245667
C        0.5862391613    0.3497010429   -0.4498219875
C       -0.8648305156    0.2195035404   -0.8915631406
C       -1.6527948810    1.5096583393   -0.9736104257
O       -1.2591723799   -0.6734783661   -1.9116477743
H        2.3207140733    0.2409634775    1.9988440681
H        1.9762374626   -1.4773667046    1.8650788119
H       -0.2501733798   -0.8860525665    2.5646087998
H       -0.0046955410    0.8189866685    2.1548346102
H        2.7775215782    0.1283085100   -0.3630518453
H        1.9027281362   -1.4008966011   -0.5369151711
H       -0.2870544926   -1.4932289863    0.1669591959
H        0.6736071519    1.3566738771   -0.0347566629
H       -1.4760394916    1.9920235481   -1.9399791066
H       -1.3771130795    2.2034395652   -0.1755149826
H       -2.7208028263    1.2865447058   -0.8889548536
H       -1.5941819082   -1.4843770351   -1.5018633028
20   
Generated by ForceBalance from scan.xyz: Frame 5 of 24
C        1.6836063758   -0.4885846208    1.4896216607
C        0.1456279758   -0.2091674224    1.8025417959
C        1.8580776150   -0.3976601322   -0.0927686599
C       -0.4346858372   -0.4400180046    0.4117420931
C        0.5806059187    0.3532823594   -0.4458056822
C       -0.8617275645    0.2162641199   -0.8921644709
C       -1.6572739356    1.5017236583   -0.9839073741
O       -1.2119681352   -0.6921151281   -1.9156818441
H        2.3219920411    0.2430224153    1.9960890192
H        1.9822679637   -1.4759636817    1.8576234276
H       -0.2437162880   -0.8921410177    2.5653360425
H       -0.0047513903    0.8143201264    2.1581052892
H        2.7725340427    0.1386748705   -0.3675843098
H        1.9000760069   -1.3922848116   -0.5445407123
H       -0.2869132076   -1.4955877874    0.1626080222
H        0.6641617552    1.3592840903   -0.0275097161
H       -1.4619064228    1.9905000105   -1.9433383486
H       -1.4054303620    2.1922434182   -0.1747954818
H       -2.7267328579    1.2747395236   -0.9234943687
H       -1.7550629771   -1.3936478657   -1.5252176565
20   
Generated by ForceBalance from scan.xyz: Frame 6 of 24
C        1.6864461672   -0.4874369153    1.4881091194
C        0.1496290196   -0.2078545078    1.8073048016
C        1.8536559919   -0.3975748341   -0.0949344173
C       -0.4391582031   -0.4424138164    0.4203230527
C        0.5741298083    0.3522115115   -0.4404966717
C       -0.8598439802    0.2120698471   -0.8915349513
C       -1.6671556864    1.4897727884   -0.9902277742
O       -1.1741677891   -0.7104867247   -1.9121768508
H        2.3273650874    0.2441963045    1.9915283443
H        1.9866906081   -1.4748000691    1.8547404766
H       -0.2355887908   -0.8899579086    2.5729501375
H        0.0014291113    0.8159972047    2.1630629262
H        2.7668390133    0.1387257455   -0.3743641784
H        1.8920263621   -1.3919680198   -0.5468862470
H       -0.2957306564   -1.4970106386    0.1690247272
H        0.6567515891    1.3588078892   -0.0232948425
H       -1.4614198340    1.9873675155   -1.9429788840
H       -1.4368878656    2.1767082738   -0.1714784045
H       -2.7362552974    1.2545026521   -0.9469224738
H       -1.8940647308   -1.2761470710   -1.5896617841
20   
Generated by ForceBalance from scan.xyz: Frame 7 of 24
C        1.6923698486   -0.4854092307    1.4893591942
C        0.1568657691   -0.2034026369    1.8131070264
C        1.8542070239   -0.4005999538   -0.0943812104
C       -0.4390477480   -0.4425961920    0.4294344223
C        0.5730821913    0.3476879901   -0.4360045992
C       -0.8544042205    0.2061132879   -0.8929849175
C       -1.6747176945    1.4747278576   -0.9965760990
O       -1.1436896175   -0.7285352218   -1.9065551760
H        2.3363328436    0.2466359639    1.9884347596
H        1.9926486596   -1.4722244536    1.8573046832
H       -0.2257000284   -0.8828880351    2.5823906446
H        0.0117026435    0.8216389248    2.1671003827
H        2.7667032318    0.1343747517   -0.3788934943
H        1.8894162230   -1.3961518360   -0.5435528023
H       -0.3038127979   -1.4979866420    0.1798681460
H        0.6557998960    1.3560321071   -0.0229312873
H       -1.4695552954    1.9783956634   -1.9464331080
H       -1.4576452779    2.1607999802   -0.1735627057
H       -2.7425304794    1.2302377435   -0.9573835570
H       -1.9978620426   -1.1397812432   -1.6931972062
20   
Generated by ForceBalance from scan.xyz: Frame 8 of 24
C        1.7066674967   -0.4779570692    1.5010502382
C        0.1714719168   -0.1965074871    1.8255909415
C        1.8653303615   -0.4058398486   -0.0834683688
C       -0.4279571929   -0.4487848112    0.4456013670
C        0.5807991265    0.3352593263   -0.4287790154
C       -0.8439236742    0.1862647159   -0.8871526302
C       -1.6780650248    1.4450552258   -0.9945661260
O       -1.1206137378   -0.7610302192   -1.8890730941
H        2.3508137616    0.2588069344    1.9930012979
H        2.0092454919   -1.4614975278    1.8757325261
H       -0.2076002171   -0.8698444041    2.6020035423
H        0.0253824722    0.8314159355    2.1711557200
H        2.7757340977    0.1294439704   -0.3743519280
H        1.9026511303   -1.4049893936   -0.5242068479
H       -0.2973203517   -1.5062801580    0.2042676614
H        0.6603500139    1.3476357986   -0.0249603689
H       -1.4830344496    1.9507015502   -1.9457792569
H       -1.4664693362    2.1343461256   -0.1730893675
H       -2.7438380599    1.1904705841   -0.9473470802
H       -2.0575124933   -1.0083407726   -1.8124189534
20   
Generated by ForceBalance from scan.xyz: Frame 9 of 24
C        1.7113937247   -0.4742715948    1.5033321023
C        0.1776671295   -0.1899724898    1.8315874112
C        1.8647683755   -0.4127138314   -0.0820415012
C       -0.4281325781   -0.4498523570    0.4554913729
C        0.5783909690    0.3251063089   -0.4275192196
C       -0.8459231378    0.1739402735   -0.8853039768
C       -1.6884334861    1.4264630787   -0.9934508061
O       -1.1260477295   -0.7860665197   -1.8728566449
H        2.3581720207    0.2650128947    1.9880587794
H        2.0144479474   -1.4556894450    1.8830735022
H       -0.1987762170   -0.8579609938    2.6138898314
H        0.0340094279    0.8403487820    2.1713363440
H        2.7742947204    0.1203261078   -0.3799164834
H        1.9005165838   -1.4150129320   -0.5157163882
H       -0.3049924816   -1.5097436691    0.2213127754
H        0.6585084091    1.3408598564   -0.0320055140
H       -1.5072655279    1.9325086672   -1.9476907342
H       -1.4735790567    2.1197294843   -0.1765654995
H       -2.7522676114    1.1653342480   -0.9313236165
H       -2.0912717475   -0.8658403440   -1.9476915227
20   
Generated by ForceBalance from scan.xyz: Frame 10 of 24
C        1.7137790588   -0.4720677684    1.5027666555
C        0.1813851748   -0.1861311940    1.8351796446
C        1.8619608375   -0.4189690792   -0.0835084699
C       -0.4289366625   -0.4513541401    0.4619269960
C        0.5739092420    0.3156501434   -0.4293102456
C       -0.8545559038    0.1600693749   -0.8811191499
C       -1.6992623208    1.4101417307   -0.9943049295
O       -1.1495738911   -0.8160045286   -1.8498720853
H        2.3625535481    0.2695114336    1.9812835834
H        2.0177095351   -1.4515689766    1.8867148591
H       -0.1924725548   -0.8506355172    2.6216731520
H        0.0391376663    0.8458302831    2.1707283884
H        2.7706013930    0.1122673083   -0.3873914842
H        1.8967851345   -1.4239936319   -0.5110802314
H       -0.3118086624   -1.5134112308    0.2340706296
H        0.6546591333    1.3343219751   -0.0410407985
H       -1.5307116198    1.9081645779   -1.9556316807
H       -1.4737372383    2.1130489368   -0.1889958883
H       -2.7617930831    1.1487083533   -0.9128822161
H       -2.0875311541   -0.7365099615   -2.0849424255
20   
Generated by ForceBalance from scan.xyz: Frame 11 of 24
C        1.6655640384   -0.5225479468    1.5548182304
C        0.1382526560   -0.1699015153    1.8427121088
C        1.8509131881   -0.5236629545   -0.0285344727
C       -0.4483474040   -0.4519740234    0.4632114885
C        0.6007556612    0.2488081561   -0.4287233989
C       -0.8330159763    0.1332333804   -0.8958517286
C       -1.6156507038    1.4176916154   -1.0596250990
O       -1.1727721482   -0.8648592552   -1.8297990205
H        2.3308756423    0.2091709573    2.0256820946
H        1.9237039240   -1.5001586808    1.9754165186
H       -0.2785117819   -0.7961119184    2.6390206165
H        0.0276902660    0.8763928214    2.1440434423
H        2.7862638522   -0.0371509612   -0.3263020372
H        1.8572710328   -1.5422951561   -0.4244564278
H       -0.3695500277   -1.5245069612    0.2695853649
H        0.7133624736    1.2750157223   -0.0687929888
H       -1.4091417238    1.8806260692   -2.0315803861
H       -1.3671142906    2.1337985174   -0.2732999070
H       -2.6900622888    1.2086611917   -0.9856656546
H       -2.0104136501   -0.6192152283   -2.2506236219
20   
Generated by ForceBalance from scan.xyz: Frame 12 of 24
C        1.6733830837   -0.5133501097    1.5606182537
C        0.1461915122   -0.1651259363    1.8536421433
C        1.8510427677   -0.5242665391   -0.0238633215
C       -0.4417244893   -0.4561117377    0.4775075121
C        0.5978682069    0.2429375723   -0.4264304061
C       -0.8520449854    0.1175357204   -0.8678401621
C       -1.6241892234    1.4075944896   -1.0392393224
O       -1.2266994491   -0.8941581293   -1.7765569033
H        2.3373155094    0.2249019501    2.0230425703
H        1.9378340558   -1.4866528878    1.9873382784
H       -0.2652693603   -0.7890018222    2.6545131199
H        0.0322115226    0.8823658432    2.1491786288
H        2.7842341514   -0.0379880716   -0.3287289911
H        1.8587476324   -1.5459523090   -0.4122742652
H       -0.3605705449   -1.5297746696    0.2900231808
H        0.7100362840    1.2716866486   -0.0732565651
H       -1.4245841458    1.8540195418   -2.0208197676
H       -1.3553005252    2.1351748961   -0.2705511871
H       -2.6990346965    1.2105166291   -0.9478468085
H       -1.9278709970   -0.5492328136   -2.3488754233
20   
Generated by ForceBalance from scan.xyz: Frame 13 of 24
C        1.6797281805   -0.5023027249    1.5657577742
C        0.1525684973   -0.1584652065    1.8637376763
C        1.8492941870   -0.5250457945   -0.0196903904
C       -0.4365893398   -0.4603908640    0.4916859155
C        0.5931192191    0.2371164930   -0.4249171346
C       -0.8732360742    0.1035757295   -0.8385551312
C       -1.6347556974    1.3997522135   -1.0154749200
O       -1.2836261941   -0.9177464375   -1.7214323076
H        2.3418466933    0.2434860484    2.0184580348
H        1.9512144180   -1.4704432226    1.9998366084
H       -0.2532614928   -0.7792830421    2.6698217501
H        0.0349108545    0.8903668301    2.1525700872
H        2.7801713950   -0.0393855011   -0.3324881216
H        1.8579778598   -1.5500655012   -0.3996397939
H       -0.3519304286   -1.5348938432    0.3102115956
H        0.7055483285    1.2683705504   -0.0790074438
H       -1.4431639207    1.8304657095   -2.0060536444
H       -1.3462539375    2.1373947672   -0.2637377633
H       -2.7095366850    1.2136989726   -0.9088012084
H       -1.8116961929   -0.5152724245   -2.4273088423
20   
Generated by ForceBalance from scan.xyz: Frame 14 of 24
C        1.6728688083   -0.5090248868    1.5535374845
C        0.1478304369   -0.1591504855    1.8553436485
C        1.8366303781   -0.5374524869   -0.0325356911
C       -0.4429923074   -0.4626277111    0.4856754385
C        0.5837775993    0.2311209388   -0.4386765144
C       -0.8956946001    0.1023692271   -0.8305059099
C       -1.6461684366    1.4060764660   -1.0028280289
O       -1.3391480164   -0.9191646584   -1.6962474407
H        2.3381932183    0.2369500668    2.0011019711
H        1.9434389028   -1.4761831367    1.9904374512
H       -0.2584479830   -0.7769310620    2.6634690067
H        0.0343379939    0.8907245908    2.1416644160
H        2.7693726440   -0.0581204518   -0.3495649386
H        1.8388376865   -1.5638537424   -0.4091275354
H       -0.3615088180   -1.5373662534    0.3050805949
H        0.7026124545    1.2621151861   -0.0942656963
H       -1.4655683224    1.8284555671   -1.9993123051
H       -1.3381144808    2.1473635252   -0.2623348780
H       -2.7202315268    1.2288622273   -0.8818077838
H       -1.6663468499   -0.5002428770   -2.5078309388
20   
Generated by ForceBalance from scan.xyz: Frame 15 of 24
C        1.6855829313   -0.4807611516    1.5663076156
C        0.1610502521   -0.1335482778    1.8736815471
C        1.8379093513   -0.5297995450   -0.0203394207
C       -0.4361209018   -0.4574714686    0.5125113906
C        0.5811070335    0.2321589300   -0.4289346781
C       -0.9056726134    0.0965582763   -0.7981264265
C       -1.6609668132    1.3989443242   -0.9650698159
O       -1.3689743425   -0.9311528775   -1.6449169753
H        2.3499894997    0.2750144775    1.9984877203
H        1.9645884512   -1.4402547119    2.0146903422
H       -0.2375150374   -0.7431705113    2.6917484266
H        0.0446402287    0.9192019071    2.1478003185
H        2.7674196158   -0.0527615928   -0.3501118272
H        1.8397949835   -1.5610758066   -0.3834769556
H       -0.3503025373   -1.5331367004    0.3420883238
H        0.7006676709    1.2665735870   -0.0956199026
H       -1.4879498583    1.8235200179   -1.9619129482
H       -1.3533534290    2.1408430062   -0.2246034467
H       -2.7327966812    1.2133007669   -0.8423367994
H       -1.4876087138   -0.5480416520   -2.5294622499
20   
Generated by ForceBalance from scan.xyz: Frame 16 of 24
C        1.6787629934   -0.4891065798    1.5524743255
C        0.1587481046   -0.1298222631    1.8688920931
C        1.8199381299   -0.5431778539   -0.0352428972
C       -0.4500769556   -0.4547752218    0.5132646899
C        0.5659236012    0.2281206269   -0.4356155748
C       -0.9217877094    0.1041536543   -0.7953645988
C       -1.6763622867    1.4090162294   -0.9484816410
O       -1.3994491379   -0.9186705605   -1.6407926968
H        2.3516450352    0.2627234051    1.9783674583
H        1.9537797887   -1.4496380944    2.0010791054
H       -0.2383307426   -0.7345635109    2.6912481056
H        0.0513874207    0.9243600546    2.1409550489
H        2.7502424616   -0.0732652171   -0.3727824366
H        1.8117687906   -1.5754348287   -0.3955510867
H       -0.3719175232   -1.5307701891    0.3440837656
H        0.6963291656    1.2619736895   -0.1052644762
H       -1.5170454068    1.8358409465   -1.9463306382
H       -1.3600045172    2.1478844471   -0.2081847671
H       -2.7460985241    1.2206584439   -0.8156431430
H       -1.2992697881   -0.6035881764   -2.5544246773
20   
Generated by ForceBalance from scan.xyz: Frame 17 of 24
C        1.6856096706   -0.4721492881    1.5512511382
C        0.1689582361   -0.1064843509    1.8755180189
C        1.8145315550   -0.5355970918   -0.0368736513
C       -0.4517223785   -0.4387793494    0.5272841762
C        0.5616865392    0.2404989501   -0.4327379843
C       -0.9243258592    0.1200960163   -0.7830658956
C       -1.6870926521    1.4217872284   -0.9211365465
O       -1.4059972323   -0.8991248894   -1.6331248109
H        2.3637515466    0.2803197469    1.9676149256
H        1.9617547772   -1.4308807859    2.0029841479
H       -0.2243350798   -0.7050581625    2.7041211141
H        0.0667871593    0.9495613049    2.1424018294
H        2.7446291001   -0.0721573957   -0.3839627771
H        1.7988511832   -1.5697359628   -0.3914900607
H       -0.3765496212   -1.5151408670    0.3618185453
H        0.6982828447    1.2743222676   -0.1054674579
H       -1.5260758758    1.8665152734   -1.9104017953
H       -1.3838878363    2.1491829046   -0.1635712989
H       -2.7551559070    1.2184210571   -0.8004757342
H       -1.0993484320   -0.6860181623   -2.5297850003
20   
Generated by ForceBalance from scan.xyz: Frame 18 of 24
C        1.6877050845   -0.4696882393    1.5438142910
C        0.1758077762   -0.0960384446    1.8797081270
C        1.8035468776   -0.5327406314   -0.0451994312
C       -0.4592726442   -0.4251477393    0.5368913053
C        0.5516146128    0.2511699207   -0.4296555495
C       -0.9314701509    0.1390288528   -0.7759951331
C       -1.6979278264    1.4391747993   -0.9014336992
O       -1.4149251892   -0.8691396886   -1.6407967926
H        2.3736724617    0.2784163977    1.9551916118
H        1.9622454671   -1.4304867184    1.9920625220
H       -0.2139374556   -0.6926514225    2.7113400832
H        0.0813235986    0.9604231074    2.1477460144
H        2.7330207824   -0.0738840579   -0.3999318626
H        1.7800986003   -1.5668629075   -0.3997270076
H       -0.3914864358   -1.5017731151    0.3706937803
H        0.6968613219    1.2838156077   -0.1030250521
H       -1.5335951370    1.8961610655   -1.8839239743
H       -1.4044995027    2.1557467261   -0.1294442985
H       -2.7655157957    1.2276361930   -0.7914083234
H       -0.9209193087   -0.7842460397   -2.4716081911
20   
Generated by ForceBalance from scan.xyz: Frame 19 of 24
C        1.6917751595   -0.4684948129    1.5369306031
C        0.1837763828   -0.0899016318    1.8836803254
C        1.7975295848   -0.5252262968   -0.0529043383
C       -0.4634458505   -0.4107786628    0.5438431035
C        0.5450552946    0.2645020484   -0.4248860137
C       -0.9346924367    0.1602712824   -0.7730004199
C       -1.7045477089    1.4578271032   -0.8876883267
O       -1.4197017683   -0.8309414702   -1.6575298033
H        2.3843485019    0.2743425868    1.9467400677
H        1.9648909341   -1.4326501209    1.9786985431
H       -0.2031548551   -0.6878437648    2.7156148173
H        0.0959651536    0.9659383435    2.1565496887
H        2.7259821515   -0.0678208113   -0.4120936465
H        1.7695917909   -1.5583327277   -0.4106645987
H       -0.4029658989   -1.4876495662    0.3750606970
H        0.6966845132    1.2957768759   -0.0973636943
H       -1.5329472762    1.9290535330   -1.8616655991
H       -1.4231799958    2.1614136191   -0.0993600198
H       -2.7720392834    1.2386547323   -0.7921460914
H       -0.7795883613   -0.8985227971   -2.3821696473
20   
Generated by ForceBalance from scan.xyz: Frame 20 of 24
C        1.6844024009   -0.4781690786    1.5234747221
C        0.1783233408   -0.0995244616    1.8765681759
C        1.7868046381   -0.5216155263   -0.0667794386
C       -0.4754121776   -0.4063527693    0.5355850001
C        0.5338180199    0.2725491795   -0.4286652370
C       -0.9428923518    0.1755025257   -0.7836971456
C       -1.7117333822    1.4726693803   -0.8924047014
O       -1.4300863801   -0.7907762373   -1.6931568142
H        2.3801641988    0.2591728073    1.9377389310
H        1.9562790917   -1.4468166920    1.9560330456
H       -0.2076720952   -0.7031417162    2.7048361962
H        0.0931823546    0.9541963716    2.1583494885
H        2.7147634985   -0.0624803517   -0.4249248552
H        1.7586585126   -1.5524912539   -0.4318401562
H       -0.4188227830   -1.4830874731    0.3609214951
H        0.6884382740    1.3012270603   -0.0950168842
H       -1.5337512230    1.9481053126   -1.8626257272
H       -1.4351260555    2.1683904051   -0.0956653166
H       -2.7801115398    1.2536501268   -0.8045983459
H       -0.6964518288   -1.0288656170   -2.2788405407
20   
Generated by ForceBalance from scan.xyz: Frame 21 of 24
C        1.6891420964   -0.4781923836    1.5187142035
C        0.1830800335   -0.1062503859    1.8781862246
C        1.7904227112   -0.5038645326   -0.0718931035
C       -0.4743198345   -0.3976592379    0.5344678916
C        0.5333644358    0.2885342514   -0.4227505093
C       -0.9407673833    0.1939393276   -0.7867363837
C       -1.7096065140    1.4899797707   -0.8923377023
O       -1.4307235780   -0.7468589967   -1.7172857296
H        2.3847570001    0.2552824409    1.9399348250
H        1.9628714200   -1.4511816137    1.9401545182
H       -0.2004219946   -0.7191574063    2.7007780913
H        0.0966483951    0.9442045679    2.1715503062
H        2.7161806346   -0.0378281702   -0.4266332291
H        1.7673812440   -1.5316167929   -0.4470240700
H       -0.4172272138   -1.4742062849    0.3531317027
H        0.6857119911    1.3148995599   -0.0811488484
H       -1.5188688713    1.9728340819   -1.8560303244
H       -1.4424883522    2.1764754835   -0.0848246918
H       -2.7790891064    1.2704774792   -0.8192607293
H       -0.6680488143   -1.1617136930   -2.1462108031
20   
Generated by ForceBalance from scan.xyz: Frame 22 of 24
C        1.7033949021   -0.4702717681    1.5238966826
C        0.1951208317   -0.1106110531    1.8869167455
C        1.8082631624   -0.4750341177   -0.0667177630
C       -0.4604551484   -0.3864763467    0.5381782955
C        0.5446954066    0.3100159271   -0.4092998301
C       -0.9281824112    0.2139983109   -0.7825947376
C       -1.6980468436    1.5088414752   -0.8846455589
O       -1.4218080833   -0.7035604963   -1.7289540242
H        2.3952286086    0.2607915174    1.9552454926
H        1.9806727332   -1.4472189406    1.9336462972
H       -0.1859901683   -0.7360779361    2.7011020905
H        0.1032108461    0.9355339445    2.1935900625
H        2.7303217998    0.0036331917   -0.4138811800
H        1.7963104668   -1.4984988272   -0.4545682448
H       -0.3980175912   -1.4627962869    0.3500194858
H        0.6899521700    1.3342190819   -0.0579842205
H       -1.5007508298    1.9965175467   -1.8443055613
H       -1.4341868562    2.1895964643   -0.0717173850
H       -2.7679512534    1.2893769140   -0.8183023156
H       -0.6937545290   -1.2855683901   -1.9937142951
20   
Generated by ForceBalance from scan.xyz: Frame 23 of 24
C        1.6835241576   -0.4845394966    1.5100572752
C        0.1700818588   -0.1355772747    1.8617995602
C        1.8060398622   -0.4706745035   -0.0791368593
C       -0.4700110637   -0.3968307213    0.5025798125
C        0.5414325012    0.3098811246   -0.4275956857
C       -0.9311065587    0.2155672731   -0.8154927985
C       -1.6975286417    1.5130023093   -0.9094195729
O       -1.4286616345   -0.6781716687   -1.7774458942
H        2.3671056451    0.2446540002    1.9572872797
H        1.9607858805   -1.4647349374    1.9120401591
H       -0.2169206380   -0.7706786717    2.6657422875
H        0.0704130060    0.9069573811    2.1781102541
H        2.7291230604    0.0168692314   -0.4106731555
H        1.8050223395   -1.4896027162   -0.4791070025
H       -0.4001214191   -1.4727960811    0.3075412626
H        0.6781674352    1.3312308935   -0.0646321018
H       -1.5057835677    2.0009539974   -1.8699610677
H       -1.4222408495    2.1917407900   -0.0991005061
H       -2.7675845708    1.2981713013   -0.8335337231
H       -0.7945083798   -1.4049660198   -1.8786265421
20   
Generated by ForceBalance from scan.xyz: Frame 24 of 24
C        1.6876453987   -0.4798043308    1.5132656807
C        0.1681818435   -0.1485512395    1.8562009893
C        1.8251370029   -0.4449966553   -0.0745192925
C       -0.4561598822   -0.3952796453    0.4866417527
C        0.5569080391    0.3274304860   -0.4259829817
C       -0.9156021912    0.2266783550   -0.8261914028
C       -1.6854588605    1.5232905421   -0.9118992804
O       -1.4115787796   -0.6530823658   -1.7989896106
H        2.3601005269    0.2497640085    1.9763362494
H        1.9695755952   -1.4623089942    1.9063593382
H       -0.2210298562   -0.7978614199    2.6476763329
H        0.0557409122    0.8886875028    2.1851849961
H        2.7466355647    0.0552735801   -0.3908195246
H        1.8373093333   -1.4584223744   -0.4878102920
H       -0.3712234124   -1.4697046344    0.2820091497
H        0.6808198238    1.3458295640   -0.0502488117
H       -1.5033204604    2.0093852792   -1.8752685860
H       -1.4000189240    2.2046626891   -0.1076399359
H       -2.7543771966    1.3083502273   -0.8245681629
H       -0.9176544454   -1.4866608466   -1.7449099173
