42

C      3.40185    5.49599    5.86121
C      3.61198    6.11517    6.88549
C     -1.36713   -3.27887   -5.88603
C     -2.23871   -3.39996   -4.79424
C     -0.26210   -2.43324   -5.78261
C      2.03495    3.92720    4.53665
C      4.02519    4.88173    3.55009
C     -2.00680   -2.68690   -3.62043
C     -0.01517   -1.70909   -4.60830
C      1.78578    3.21301    3.36287
C      3.78591    4.17553    2.37953
C      3.15252    4.77055    4.65461
C     -0.89250   -1.83758   -3.52250
C      2.66435    3.33480    2.27608
C      3.88894    6.83081    8.13123
C      0.29675    0.27888   -0.76364
C      1.46493    1.23086   -0.48516
C      0.36873   -0.30779   -2.16600
C      1.39170    1.81743    0.91671
O      3.22338    8.10263    8.12402
O     -0.75020   -1.18033   -2.32814
O      2.51781    2.68362    1.08399
H     -1.54983   -3.83601   -6.80051
H     -3.10431   -4.05448   -4.85848
H      0.42263   -2.32851   -6.62053
H      1.35273    3.83325    5.37646
H      4.89202    5.53180    3.62367
H     -2.67287   -2.77062   -2.76642
H      0.85092   -1.05927   -4.55613
H      0.91270    2.57307    3.30903
H      4.45301    4.25773    1.52644
H      3.54644    6.21726    8.97782
H      4.97672    6.96116    8.23158
H      0.29444   -0.54456   -0.03995
H     -0.65909    0.80398   -0.65206
H      1.46851    2.05370   -1.20948
H      2.42048    0.70495   -0.59521
H      0.33520    0.48981   -2.92108
H      1.30408   -0.86806   -2.30257
H      1.41910    1.02042    1.67216
H      0.46128    2.38560    1.05105
H      3.43416    8.54428    8.96248
