30   

C       -1.4685307671    0.9866464363    0.9500418693
C       -1.2269022922   -0.2468509734    1.5572270003
C       -0.4821638411    1.5698910556    0.1533978473
C        5.5551599076    1.2158889221   -1.2685159798
C       -0.0016993567   -0.8969106170    1.3688503563
C        0.7433111357    0.9215413574   -0.0344410361
C        5.2002998482   -0.0024168274   -1.8396039258
C        4.8949187589    1.6506176284   -0.1239975473
C        1.0067420072   -0.3261700446    0.5726806518
C        3.4642495892   -0.3164043582   -0.1651246874
C        4.1833464893   -0.7878232635   -1.2904363528
C        3.8622886325    0.8971961275    0.4380559260
C        2.2913810884   -1.0575555883    0.3842140039
C        3.8346307102   -3.1673621565   -1.1057849066
C        3.5818428950   -3.0994437198    0.4042816714
N        2.3594303084   -2.3286614711    0.7217520626
N        3.9401518541   -2.0315498592   -1.8740343481
O        3.9869268908   -4.2365281062   -1.6756023614
F        3.2653091803    1.3507959988    1.5649638819
H       -2.4193994627    1.4873243429    1.0939892590
H       -1.9905336130   -0.7052017031    2.1753327944
H       -0.6679696230    2.5244015049   -0.3257874970
H        6.3512045595    1.8122970730   -1.7021902911
H        0.1513352276   -1.8546936455    1.8549491363
H        1.4778177229    1.3935751282   -0.6764363477
H        5.7390908819   -0.3508501100   -2.7132437161
H        5.1783538579    2.5856642098    0.3445484040
H        3.4695579486   -4.1215577938    0.7764464618
H        4.4530924633   -2.6617602126    0.8995573269
H        4.2564858732   -2.2293970600   -2.8146292314
30   

C       -1.4159502778    1.0580406187    0.9935627400
C       -1.1168688472   -0.0923503907    1.7268438644
C       -0.5191711739    1.5145841847    0.0255814369
C        5.5555294031    1.2269386055   -1.1824542504
C        0.0729570879   -0.7897681393    1.4875012855
C        0.6709937810    0.8183472192   -0.2115016441
C        5.2440435105    0.0095847230   -1.7798899510
C        4.8338747284    1.6445997102   -0.0693958999
C        0.9777853201   -0.3570938044    0.5053286860
C        3.4370081711   -0.3438618499   -0.1901524682
C        4.2121459760   -0.7935536156   -1.2870071869
C        3.7854200448    0.8738238476    0.4368963169
C        2.2481215831   -1.1034158293    0.2910800637
C        3.8511845875   -3.1793997116   -1.1691510038
C        3.5341277833   -3.1456795554    0.3296752636
N        2.3042572657   -2.3763223616    0.6208983662
N        4.0034477543   -2.0274171273   -1.9043424660
O        4.0193609994   -4.2359066578   -1.7577248785
F        3.1298446476    1.3150178207    1.5357980019
H       -2.3398285860    1.5951302993    1.1766223471
H       -1.8071203456   -0.4475110684    2.4835740908
H       -0.7461225415    2.4082543549   -0.5445451255
H        6.3634595705    1.8373506672   -1.5724371020
H        0.2846046288   -1.6777243583    2.0739731771
H        1.3491750623    1.1891700531   -0.9720222981
H        5.8267943136   -0.3226334470   -2.6313337824
H        5.0805005207    2.5803172480    0.4182320813
H        3.4023918798   -4.1760692548    0.6714450804
H        4.3865813229   -2.7257120899    0.8707600008
H        4.3624992603   -2.2056621234   -2.8334943884
30   

C       -1.3587433943    1.1152322585    1.0047263060
C       -0.9787125123    0.0675446093    1.8472615751
C       -0.5733518655    1.4301341852   -0.1065854355
C        5.5669769939    1.2348460101   -1.0881268492
C        0.1766908086   -0.6726767159    1.5705439685
C        0.5826212453    0.6904932425   -0.3790845028
C        5.2943413102    0.0230566034   -1.7146606954
C        4.7897629376    1.6325832511   -0.0059430526
C        0.9550072189   -0.3946449240    0.4381513116
C        3.4220056168   -0.3697718904   -0.2112912901
C        4.2484099575   -0.7955564465   -1.2802271242
C        3.7263742561    0.8465707157    0.4424349701
C        2.2192823203   -1.1462883211    0.2003763477
C        3.8798854806   -3.1854255334   -1.2346807182
C        3.5034195076   -3.1882479476    0.2505288707
N        2.2664193221   -2.4217346114    0.5184229817
N        4.0724082476   -2.0166133019   -1.9324880293
O        4.0644214322   -4.2274858267   -1.8436850903
F        3.0177850339    1.2729730009    1.5138443875
H       -2.2561206102    1.6856185192    1.2165738075
H       -1.5776764490   -0.1724864474    2.7183551579
H       -0.8584481801    2.2488132811   -0.7574826438
H        6.3859837665    1.8576369009   -1.4327573812
H        0.4640418787   -1.4760405328    2.2407922368
H        1.1871950359    0.9523947641   -1.2406217882
H        5.9171698698   -0.2914124773   -2.5441683506
H        5.0033907455    2.5652007431    0.5027179873
H        3.3555131420   -4.2266909892    0.5598047647
H        4.3360339539   -2.7866699240    0.8346496928
H        4.4712738307   -2.1731830469   -2.8492608808
30   

C       -1.3084124427    1.1625052883    0.9816091687
C       -0.8239715082    0.2574628997    1.9295786501
C       -0.6499664831    1.3017277058   -0.2425943549
C        5.5880731608    1.2381386898   -0.9763487470
C        0.3055413916   -0.5188820414    1.6451010390
C        0.4805796382    0.5256698450   -0.5209081406
C        5.3402542601    0.0387669643   -1.6355449812
C        4.7731153245    1.6125571249    0.0858267531
C        0.9461565219   -0.4278208822    0.4029578978
C        3.4219240389   -0.3918800853   -0.2007514707
C        4.2833894876   -0.7913435078   -1.2525150455
C        3.6979417231    0.8152683180    0.4835173766
C        2.2093964419   -1.1829946519    0.1494472314
C        3.9062132629   -3.1822313266   -1.2870833748
C        3.4862248916   -3.2278481608    0.1856148497
N        2.2458531999   -2.4634366338    0.4436657059
N        4.1286031209   -1.9945358267   -1.9425823075
O        4.1008200475   -4.2063657196   -1.9227294594
F        2.9542645367    1.2236238778    1.5376361875
H       -2.1859021197    1.7609688742    1.1992019509
H       -1.3203496899    0.1579625143    2.8881394221
H       -1.0123904967    2.0135060460   -0.9755454932
H        6.4155985680    1.8702804910   -1.2812743823
H        0.6830676319   -1.2079467581    2.3931786850
H        0.9948780504    0.6537185191   -1.4672210478
H        5.9900790300   -0.2560639784   -2.4514265766
H        4.9654259704    2.5364465898    0.6183282943
H        3.3248029361   -4.2745122947    0.4583024728
H        4.3037194351   -2.8491520373    0.8052011269
H        4.5551617071   -2.1259240650   -2.8508319106
30   

C       -1.3266605964    1.1803832744    0.9101105553
C       -0.7040488853    0.5043987806    1.9625200620
C       -0.8039340877    1.0807860519   -0.3815073631
C        5.6291931451    1.2111432291   -0.8496737063
C        0.4282221942   -0.2815938622    1.7183203077
C        0.3299390204    0.2956949410   -0.6182599352
C        5.3581370755    0.0462925628   -1.5587140227
C        4.8207215906    1.5559220407    0.2267940687
C        0.9367403781   -0.4283160278    0.4227237435
C        3.4308166150   -0.4093865093   -0.1413538925
C        4.2851450266   -0.7786682812   -1.2110509323
C        3.7295674468    0.7641345712    0.5907404249
C        2.2006859716   -1.1926485338    0.1667090963
C        3.8580271642   -3.1579279082   -1.3624038403
C        3.4245039409   -3.2667167979    0.1025985908
N        2.1989445321   -2.4876373798    0.3845676074
N        4.1066294814   -1.9443158312   -1.9579788112
O        4.0360916485   -4.1532604416   -2.0467834110
F        2.9962914596    1.1464392497    1.6604302445
H       -2.2067066248    1.7855971557    1.0964937425
H       -1.0957352698    0.5898420441    2.9696920193
H       -1.2748937335    1.6131723945   -1.2000428543
H        6.4685586400    1.8398396045   -1.1281764252
H        0.9132937661   -0.7940439383    2.5421062619
H        0.7376678036    0.2353288519   -1.6215054025
H        6.0015390258   -0.2250977364   -2.3876990302
H        5.0302069761    2.4531916741    0.7969790213
H        3.2369016593   -4.3214974242    0.3220508512
H        4.2442204043   -2.9368767260    0.7466777466
H        4.5334536435   -2.0403054117   -2.8705247416
30   

C       -1.2773402566    0.7148556203    0.6768769382
C       -0.4816842716    0.4388564581    1.7911870369
C       -0.8399124154    0.3374606718   -0.5942699966
C        5.8624965913    1.3350963071   -0.6971687872
C        0.7486887373   -0.2099599020    1.6321441983
C        0.3909970169   -0.3101162571   -0.7459088801
C        5.5970019934    0.2494396424   -1.5220028858
C        5.0852986738    1.5312951419    0.4366710448
C        1.2052906993   -0.5911517019    0.3652192855
C        3.7296417080   -0.4215961943   -0.1028574088
C        4.5586235596   -0.6410158591   -1.2363813429
C        4.0296830239    0.6709052763    0.7459006732
C        2.5272318271   -1.2719643713    0.1447278193
C        4.2223800385   -3.0020103390   -1.6562465592
C        3.7847560281   -3.2944149041   -0.2207423529
N        2.5341368246   -2.5844837045    0.1199183763
N        4.3954946588   -1.7172851604   -2.1113424518
O        4.4540342286   -3.9039371751   -2.4460127621
F        3.3379464806    0.9106087419    1.8799172573
H       -2.2315472574    1.2150879690    0.7984694254
H       -0.8192003463    0.7223187292    2.7815857037
H       -1.4538574466    0.5438202211   -1.4636267992
H        6.6740289339    2.0162698506   -0.9311869844
H        1.3428696775   -0.4356287201    2.5104652224
H        0.7220738187   -0.6017073603   -1.7368972984
H        6.2180827373    0.0920331473   -2.3962892103
H        5.2925012422    2.3651927567    1.0967720060
H        3.6251159172   -4.3720522687   -0.1253422885
H        4.5874162894   -3.0153271259    0.4675770646
H        4.8120142996   -1.6917186962   -3.0331715315
30   

C       -1.3481348263    0.6054765534    0.6043161081
C       -0.4474657417    0.6877846843    1.6666870340
C       -0.9892260826   -0.0953772610   -0.5461614063
C        5.9174127302    1.3196095294   -0.5506702060
C        0.8148485308    0.0883425282    1.5708807315
C        0.2724233053   -0.6920437153   -0.6342344074
C        5.5340102086    0.3652004120   -1.4833850198
C        5.2637099689    1.3706623233    0.6732063181
C        1.2153879045   -0.5823349093    0.4074991836
C        3.7654880521   -0.4308156642    0.0001048458
C        4.4892465965   -0.5244284533   -1.2209904149
C        4.2074164962    0.5042873607    0.9648297449
C        2.5418808964   -1.2651962186    0.2249849833
C        4.1087807734   -2.8202548876   -1.8561451942
C        3.7359585340   -3.2536058888   -0.4381274322
N        2.5100123152   -2.5615143351    0.0099734727
N        4.2319848935   -1.4933631494   -2.1935040063
O        4.3094947532   -3.6394114833   -2.7391348551
F        3.6683105570    0.5708508132    2.1981739922
H       -2.3252431050    1.0695525096    0.6781015516
H       -0.7313428640    1.2061655769    2.5755135548
H       -1.6871397342   -0.1812241769   -1.3713107510
H        6.7318389357    2.0027691098   -0.7682976768
H        1.4463773008    0.1287133209    2.4456220254
H        0.5348381979   -1.2413546829   -1.5324768636
H        6.0709650955    0.3055172281   -2.4230935117
H        5.5747555140    2.0899073007    1.4214763898
H        3.5625877021   -4.3333262397   -0.4414866458
H        4.5701287404   -3.0506105552    0.2395784255
H        4.5893777411   -1.3749631472   -3.1326036216
30   

C       -1.4008307057    0.5370491963    0.6057712807
C       -0.4016929360    0.9040824009    1.5056136611
C       -1.1174350357   -0.4013960889   -0.3832868123
C        5.9443236363    1.3293312157   -0.3931693524
C        0.8805870571    0.3491092431    1.4055235977
C        0.1638914559   -0.9531967829   -0.4757392261
C        5.5024912363    0.4905744805   -1.4098111982
C        5.3525691964    1.2447549877    0.8622668098
C        1.2103537855   -0.5631871582    0.3913634498
C        3.7753018618   -0.4187882330    0.0482782042
C        4.4512838047   -0.4045595013   -1.1988485593
C        4.2913958457    0.3673766769    1.1003648385
C        2.5378759208   -1.2458880739    0.2399356253
C        4.0557903873   -2.6469753218   -1.9730502811
C        3.7367681022   -3.1772324469   -0.5714111063
N        2.5159170107   -2.5305458493   -0.0457107978
N        4.1541848017   -1.2981150475   -2.2296607062
O        4.2318693722   -3.4061924672   -2.9130915472
F        3.8226979194    0.2578225095    2.3620674441
H       -2.3924161079    0.9690723650    0.6810960366
H       -0.6206836530    1.6185437688    2.2910405389
H       -1.8890603183   -0.7073880624   -1.0806571898
H        6.7637946976    2.0182666525   -0.5698408056
H        1.5950580749    0.6598390986    2.1497911594
H        0.3537152196   -1.6888919325   -1.2505613305
H        6.0025687386    0.5194337268   -2.3710673597
H        5.7208796050    1.8586654283    1.6754875945
H        3.5759625176   -4.2568388174   -0.6380738613
H        4.5895326816   -3.0064868956    0.0919909925
H        4.4792541949   -1.1148882071   -3.1700476240
30   

C       -1.4159571384    0.5379725054    0.6472814102
C       -0.3361297116    1.0873866743    1.3351465901
C       -1.2109091151   -0.5694743756   -0.1709104268
C        5.9665941236    1.3253245957   -0.2690531662
C        0.9455428988    0.5403426082    1.1948234301
C        0.0703463325   -1.1132433804   -0.3044122087
C        5.5303422874    0.5415107799   -1.3322329537
C        5.3538569175    1.1897415583    0.9728848789
C        1.1951930337   -0.5529891977    0.3490428314
C        3.7675022691   -0.4052246380    0.0524995867
C        4.4644041360   -0.3479050098   -1.1792246280
C        4.2761443855    0.3182656630    1.1507341379
C        2.5225424563   -1.2307163947    0.1990942365
C        4.0687207460   -2.5593991604   -2.0302701592
C        3.7457594932   -3.1338371198   -0.6452255028
N        2.5175769136   -2.5122982262   -0.1045149442
N        4.1763437633   -1.2031253365   -2.2438608761
O        4.2468178338   -3.2894951475   -2.9927740505
F        3.7732440356    0.1531665080    2.3956078531
H       -2.4074557206    0.9640053655    0.7521311149
H       -0.4897087376    1.9432062609    1.9826710404
H       -2.0438312718   -1.0135194239   -0.7042512338
H        6.7987604926    2.0092783578   -0.3998690928
H        1.7331778828    1.0201120410    1.7536667061
H        0.1878984264   -1.9810222876   -0.9450963425
H        6.0477030748    0.6059366451   -2.2825628082
H        5.7180418171    1.7577008285    1.8206483040
H        3.5930021970   -4.2119977780   -0.7454972558
H        4.5943066248   -2.9783819147    0.0272546133
H        4.5107550658   -0.9899126780   -3.1746146290
30   

C       -1.4078871244    0.5748732679    0.6804063743
C       -0.2723901325    1.2381471249    1.1407887517
C       -1.2687281755   -0.6561942663    0.0451702912
C        5.9814993244    1.3065499028   -0.1604656121
C        0.9979020472    0.6771238559    0.9595581623
C        0.0014028187   -1.2140102694   -0.1310082837
C        5.5775419100    0.5493283278   -1.2557724817
C        5.3155016689    1.1592673239    1.0526366422
C        1.1767213221   -0.5509647835    0.3009932529
C        3.7504551548   -0.3999427001    0.0392127777
C        4.4952258167   -0.3287514881   -1.1624853556
C        4.2193341530    0.3009602193    1.1693486245
C        2.5016625607   -1.2251632483    0.1332735185
C        4.1051938954   -2.5180987742   -2.0706077355
C        3.7466310822   -3.1173094681   -0.7044120904
N        2.5074311028   -2.5053399357   -0.1769207542
N        4.2360487701   -1.1594301702   -2.2531853794
O        4.3004129411   -3.2305059167   -3.0430005706
F        3.6430403782    0.1377852791    2.3834225030
H       -2.3910636141    1.0109798541    0.8173372723
H       -0.3734131300    2.1952693959    1.6397932891
H       -2.1446668165   -1.1856136948   -0.3123817385
H        6.8275539801    1.9807701561   -0.2444742320
H        1.8327053269    1.2554714977    1.3259482153
H        0.0635459236   -2.1782602716   -0.6243888513
H        6.1330913829    0.6248549571   -2.1834673867
H        5.6493591996    1.7095337514    1.9242756636
H        3.5949789950   -4.1930314634   -0.8293778937
H        4.5797153001   -2.9773453408   -0.0096195824
H        4.5999279747   -0.9303197491   -3.1690264514
30   

C       -1.3880262983    0.6221259246    0.6969627889
C       -0.2213543111    1.3488847276    0.9279544435
C       -1.2970983359   -0.6942853254    0.2510100023
C        5.9862595324    1.2670350461   -0.0600518295
C        1.0321794345    0.7632588111    0.7118254896
C       -0.0437987874   -1.2769406148    0.0377994845
C        5.6280934348    0.5215297349   -1.1792912433
C        5.2548364102    1.1263414724    1.1154216932
C        1.1572832009   -0.5583686788    0.2527167738
C        3.7284524726   -0.4144806634    0.0166424526
C        4.5313945999   -0.3433157587   -1.1468219917
C        4.1427130744    0.2830325703    1.1707789925
C        2.4754256581   -1.2336682763    0.0526186938
C        4.1432402344   -2.5126774905   -2.1067743483
C        3.7297043496   -3.1283930483   -0.7638170597
N        2.4815398730   -2.5126319729   -0.2618040977
N        4.3100023287   -1.1547194718   -2.2598903296
O        4.3600611183   -3.2118442743   -3.0841665586
F        3.4840667582    0.1438463665    2.3453944221
H       -2.3583868421    1.0766574453    0.8624386350
H       -0.2854864084    2.3745578744    1.2731502743
H       -2.1975588967   -1.2703177685    0.0700630639
H        6.8441800188    1.9304268005   -0.0967854170
H        1.8934320978    1.3920697874    0.8879929596
H       -0.0165768608   -2.3064442976   -0.3033090873
H        6.2297798350    0.5967948518   -2.0777750893
H        5.5464441172    1.6727276840    2.0045408446
H        3.5702872587   -4.1999719692   -0.9124289139
H        4.5413094717   -3.0109531325   -0.0401008869
H        4.7141878916   -0.9169604458   -3.1564744158
30   

C       -1.3678475966    0.6574231429    0.7163791831
C       -0.1971530651    1.4149635730    0.7242104709
C       -1.2984434940   -0.7099007733    0.4558666097
C        5.9783618989    1.2257344883    0.0270385667
C        1.0397534285    0.8075293991    0.4757963760
C       -0.0616457384   -1.3143114190    0.2085790492
C        5.6707990200    0.4836866184   -1.1094483490
C        5.1821821083    1.0981938266    1.1609303970
C        1.1405478513   -0.5688355882    0.2159807932
C        3.7055330177   -0.4373717280   -0.0122069439
C        4.5648600729   -0.3698414733   -1.1351164797
C        4.0597426040    0.2672241716    1.1585859730
C        2.4475223083   -1.2448981690   -0.0352086912
C        4.1714776973   -2.5168845071   -2.1505065149
C        3.6984821706   -3.1483337746   -0.8354218280
N        2.4463722904   -2.5217723529   -0.3568788311
N        4.3825730967   -1.1622156239   -2.2687865795
O        4.4053769443   -3.2017212053   -3.1340537832
F        3.3292654372    0.1519180388    2.2923691298
H       -2.3255326615    1.1281885111    0.9081906298
H       -0.2460242526    2.4803157461    0.9188407543
H       -2.2027778578   -1.3077515023    0.4452624443
H        6.8440728755    1.8799188056    0.0352940092
H        1.9089584051    1.4522084504    0.4687933880
H       -0.0455664097   -2.3813195350    0.0129915920
H        6.3175801529    0.5551884786   -1.9763544372
H        5.4288864480    1.6468752819    2.0621811051
H        3.5248420457   -4.2135865322   -1.0111556942
H        4.4878076427   -3.0614380257   -0.0833962047
H        4.8281415799   -0.9174745580   -3.1436708710
30   

C       -1.3529196277    0.6775694842    0.7328097985
C       -0.2059380626    1.4447945542    0.5269865176
C       -1.2736867988   -0.7125978609    0.6555466687
C        5.9631331006    1.1942286097    0.1039355319
C        1.0184729035    0.8235883441    0.2530448900
C       -0.0491663776   -1.3305596102    0.3811319213
C        5.7033811815    0.4539894878   -1.0454678184
C        5.1098603783    1.0793110673    1.1965545397
C        1.1291328790   -0.5746078033    0.1911146548
C        3.6845206585   -0.4559019296   -0.0397823521
C        4.5926379515   -0.3901977348   -1.1241991776
C        3.9815713083    0.2583963369    1.1419133231
C        2.4217998663   -1.2480046602   -0.1205837588
C        4.1886950496   -2.5103031927   -2.2009453723
C        3.6617462679   -3.1601913854   -0.9165340659
N        2.4100321113   -2.5217179378   -0.4529418605
N        4.4459419526   -1.1612674642   -2.2776834324
O        4.4324023712   -3.1768799009   -3.1945655788
F        3.1929604427    0.1616695586    2.2377236210
H       -2.3012103301    1.1582915005    0.9454217279
H       -0.2645671587    2.5262465688    0.5741585747
H       -2.1610018246   -1.3168218461    0.8068982403
H        6.8331246811    1.8408746675    0.1532963521
H        1.8765945701    1.4608147734    0.0754236167
H       -0.0189176267   -2.4136060300    0.3243693352
H        6.3892565807    0.5227908042   -1.8820065129
H        5.3149787243    1.6309300147    2.1064072695
H        3.4715780688   -4.2169965428   -1.1234699564
H        4.4310259025   -3.1090056036   -0.1409336551
H        4.9278392977   -0.9079963478   -3.1306594094
30   

C       -1.3497688269    0.6848676685    0.7514804860
C       -0.2512402817    1.4388506893    0.3349431234
C       -1.2312662352   -0.7007401067    0.8675875107
C        5.9495777786    1.1487585097    0.1965051711
C        0.9659650511    0.8097103227    0.0480803237
C       -0.0138150447   -1.3264251332    0.5786855291
C        5.7299868928    0.4080113872   -0.9606674582
C        5.0468500384    1.0514610460    1.2499667779
C        1.1181926578   -0.5779453543    0.1932471059
C        3.6627337429   -0.4808333631   -0.0367872791
C        4.6136030061   -0.4232806302   -1.0849682526
C        3.9119722012    0.2441214245    1.1503784482
C        2.3944551000   -1.2527502402   -0.1713677642
C        4.1943831737   -2.5180620729   -2.2137984298
C        3.6166850908   -3.1795017757   -0.9581061257
N        2.3684464935   -2.5245235387   -0.5084547439
N        4.4972847978   -1.1774352999   -2.2531862046
O        4.4442501426   -3.1698326293   -3.2156341347
F        3.0752251217    0.1695238671    2.2116373913
H       -2.2926599677    1.1711923596    0.9750353450
H       -0.3429819814    2.5137021277    0.2279333658
H       -2.0830989449   -1.2950161957    1.1782214294
H        6.8242364012    1.7853328205    0.2813243127
H        1.7939629413    1.4203119678   -0.2944152799
H        0.0529800720   -2.4059134464    0.6649559987
H        6.4498481509    0.4693154410   -1.7687334994
H        5.2171329811    1.6071978191    2.1644855749
H        3.4081797125   -4.2271020396   -1.1924378828
H        4.3667595803   -3.1629795865   -0.1625399683
H        5.0123648872   -0.9207201651   -3.0855383905
30   

C       -1.3453815243    0.6774343430    0.7492905353
C       -0.3242613551    1.4017314555    0.1300293639
C       -1.1517879223   -0.6726314270    1.0485073948
C        5.9649392239    1.1045289426    0.2768791687
C        0.8932033564    0.7807096556   -0.1727417035
C        0.0657396465   -1.2900494177    0.7420733444
C        5.7732152703    0.3832812156   -0.8971339635
C        5.0230690007    1.0114326357    1.2954487670
C        1.1242359914   -0.5607883036    0.1655193635
C        3.6625071069   -0.4870004501   -0.0558214265
C        4.6480566205   -0.4268981511   -1.0718543136
C        3.8788235256    0.2252365993    1.1463502268
C        2.3878584588   -1.2329274708   -0.2481526963
C        4.2111596330   -2.4809705578   -2.2726404560
C        3.5889491304   -3.1657148768   -1.0516202984
N        2.3462686751   -2.4984377390   -0.6046677128
N        4.5538597593   -1.1497803944   -2.2617681073
O        4.4654340062   -3.1070723015   -3.2895849412
F        3.0053299306    0.1578492764    2.1780359593
H       -2.2883536875    1.1572745811    0.9860832478
H       -0.4773547281    2.4448661155   -0.1221552442
H       -1.9460791333   -1.2459224909    1.5129058197
H        6.8464617220    1.7249743160    0.4008927821
H        1.6662358351    1.3543936259   -0.6724424269
H        0.1954699415   -2.3443717691    0.9627996847
H        6.5205144292    0.4453503135   -1.6798101170
H        5.1690009186    1.5546906971    2.2215897324
H        3.3621024925   -4.2003517602   -1.3235632256
H        4.3216385891   -3.1920745366   -0.2403600842
H        5.0979034041   -0.8819939283   -3.0719486724
30   

C       -1.3697219046    0.6597063774    0.7563747762
C       -0.4516799260    1.3163157700   -0.0672981441
C       -1.0702277205   -0.6120429516    1.2506579895
C        5.9794654486    1.0328378231    0.3820092684
C        0.7711076543    0.7097294566   -0.3780236384
C        0.1520824889   -1.2152525928    0.9347702768
C        5.8018239195    0.3388642010   -0.8102971993
C        5.0095968813    0.9423611335    1.3739391829
C        1.1110176950   -0.5398070123    0.1575497092
C        3.6531758908   -0.5034982204   -0.0379993061
C        4.6641452538   -0.4426369755   -1.0290483110
C        3.8525839156    0.1847018018    1.1814349717
C        2.3687059663   -1.2163693691   -0.2797109710
C        4.2018931158   -2.4522684860   -2.2968956979
C        3.5402183480   -3.1561425924   -1.1081044133
N        2.3061072452   -2.4729222139   -0.6615167370
N        4.5813575764   -1.1324752153   -2.2393588609
O        4.4568289848   -3.0538696855   -3.3283365148
F        2.9529083615    0.1208029218    2.1904686350
H       -2.3165169682    1.1285916726    0.9997499524
H       -0.6898355304    2.2934569953   -0.4718410500
H       -1.7867681778   -1.1363785935    1.8726062679
H        6.8705245665    1.6314962990    0.5401313116
H        1.4658884166    1.2205342556   -1.0359107918
H        0.3671425309   -2.2132515940    1.3017124458
H        6.5691026750    0.4009960451   -1.5733672093
H        5.1428334900    1.4661404623    2.3131019171
H        3.2932928344   -4.1763446299   -1.4149063539
H        4.2572934366   -3.2248234376   -0.2855151159
H        5.1493057486   -0.8560180217   -3.0300106331
30   

C       -1.3907519711    0.6855595935    0.7610966629
C       -0.5942912824    1.2069254131   -0.2625374530
C       -0.9692057152   -0.4502665321    1.4577222508
C        5.9937095677    0.9676617199    0.5130199811
C        0.6306379848    0.6048018914   -0.5737384607
C        0.2543954323   -1.0506015964    1.1409943376
C        5.8169514500    0.3247369081   -0.7074846605
C        5.0113177914    0.8559022291    1.4901209808
C        1.0910485077   -0.4983622295    0.1556522339
C        3.6456737061   -0.5101658929    0.0090855299
C        4.6682525010   -0.4269528581   -0.9690040716
C        3.8432123500    0.1275311493    1.2557700021
C        2.3503728990   -1.1873814446   -0.2767086218
C        4.1797755252   -2.3686555700   -2.3322695252
C        3.4846773700   -3.1104302401   -1.1868341770
N        2.2606133474   -2.4178699557   -0.7280760929
N        4.5863772163   -1.0615558180   -2.2094892274
O        4.4354563859   -2.9276423430   -3.3872332781
F        2.9319205121    0.0421005240    2.2521352030
H       -2.3389363248    1.1516504454    1.0044366512
H       -0.9290194093    2.0737520344   -0.8209049456
H       -1.5925866984   -0.8721174896    2.2378377496
H        6.8929761705    1.5441556720    0.7036202622
H        1.2314724489    1.0031484208   -1.3841200597
H        0.5667892997   -1.9470278792    1.6656650952
H        6.5929299098    0.4045677865   -1.4600228476
H        5.1429659645    1.3408215392    2.4501207035
H        3.2183652548   -4.1092199292   -1.5437880385
H        4.1874314481   -3.2335303540   -0.3582632328
H        5.1694082555   -0.7616376546   -2.9803597191
30   

C       -1.3741859224    0.7086635396    0.7280842777
C       -0.7131140430    0.9903210116   -0.4713231980
C       -0.8238918768   -0.2108528767    1.6259452726
C        6.0141097358    0.8809328473    0.6288002238
C        0.5047877718    0.3655113329   -0.7641132626
C        0.3925784754   -0.8362589187    1.3301329487
C        5.8084117040    0.3424191829   -0.6357678793
C        5.0583954991    0.6794069807    1.6166527308
C        1.0873620597   -0.5235980986    0.1491803092
C        3.6572194063   -0.5665734835    0.0614889492
C        4.6567363267   -0.3916278364   -0.9319867236
C        3.8880350706   -0.0348749963    1.3518587209
C        2.3549684202   -1.2225114471   -0.2563019269
C        4.1638318367   -2.2094646962   -2.4563146015
C        3.4588144569   -3.0431164810   -1.3852885149
N        2.2423331173   -2.3721160881   -0.8804224836
N        4.5543212981   -0.9129851388   -2.2233786874
O        4.4301264886   -2.6775108458   -3.5521584443
F        3.0106389332   -0.2099816946    2.3642760042
H       -2.3175115778    1.1923111533    0.9555759872
H       -1.1471830679    1.6879121311   -1.1785635743
H       -1.3429694009   -0.4466189763    2.5479732647
H        6.9150127083    1.4460701077    0.8440677333
H        1.0024458486    0.5746852009   -1.7049809825
H        0.7998415515   -1.5692758065    2.0177060299
H        6.5643440890    0.4916951639   -1.3981053313
H        5.2131947503    1.0827496973    2.6103276525
H        3.1820678485   -4.0034924257   -1.8291193037
H        4.1552827262   -3.2449208525   -0.5667396056
H        5.1291614998   -0.5445501376   -2.9702262066
30   

C       -1.3281142229    0.8055968283    0.6345507252
C       -0.8069623265    0.7523030353   -0.6601469050
C       -0.6556485219    0.1670470690    1.6793092079
C        6.0464670656    0.8001472460    0.6954391378
C        0.3906604434    0.0718642845   -0.9058593123
C        0.5424308507   -0.5141215078    1.4337647258
C        5.7523603408    0.4481578661   -0.6149765215
C        5.1858356622    0.4067585314    1.7112096208
C        1.0926369648   -0.5527874913    0.1381022851
C        3.6785600564   -0.6269425460    0.0971031487
C        4.5991083590   -0.2752158046   -0.9293271494
C        4.0176792624   -0.3066742928    1.4327776027
C        2.3643464633   -1.2594825517   -0.2413071938
C        4.1135771715   -1.9171400420   -2.6315074236
C        3.4584151249   -2.8860744785   -1.6477422761
N        2.2463406912   -2.2866801335   -1.0525980671
N        4.4295119300   -0.6296486004   -2.2696560851
O        4.3815127085   -2.2549142316   -3.7738975157
F        3.2633403840   -0.6990074141    2.4783873928
H       -2.2578034855    1.3297462035    0.8256190600
H       -1.3320963100    1.2344773978   -1.4768543929
H       -1.0700193299    0.1865444739    2.6809134135
H        6.9469538323    1.3607990836    0.9238026860
H        0.7815827438    0.0307003770   -1.9172632560
H        0.9993204427   -1.0453532134    2.2567952627
H        6.4428619874    0.7318109490   -1.4009072511
H        5.4180100737    0.6523850017    2.7406533746
H        3.1843636907   -3.7951148613   -2.1903393250
H        4.1779936600   -3.1636462213   -0.8722302513
H        4.9575224966   -0.1539541220   -2.9898140984
30   

C       -1.2760102625    0.9185127112    0.4865219689
C       -0.9299953102    0.4566870418   -0.7836284936
C       -0.4392614986    0.6487952153    1.5702707504
C        6.0094088837    0.6885734429    0.8381189376
C        0.2400330362   -0.2886128289   -0.9646328797
C        0.7343802219   -0.0925429032    1.3889834314
C        5.6640787084    0.5200678780   -0.4982330159
C        5.2235385000    0.0991984979    1.8228465160
C        1.0719711900   -0.6146682061    0.1226275039
C        3.6612515128   -0.7072596182    0.1432063242
C        4.5220815406   -0.1974634584   -0.8612664404
C        4.0688049704   -0.6139153557    1.4902522404
C        2.3452140741   -1.3322541737   -0.2156694625
C        4.0651653813   -1.7082091591   -2.6759071883
C        3.4940090634   -2.7926364876   -1.7556042834
N        2.2632328101   -2.3082077809   -1.0952295350
N        4.3156610679   -0.4328257124   -2.2217863368
O        4.3166414812   -1.9399772424   -3.8481288073
F        3.3961049061   -1.2466755904    2.4766632988
H       -2.1858620986    1.4907625506    0.6289860417
H       -1.5665240637    0.6768334652   -1.6331601987
H       -0.6985514304    1.0163030828    2.5567022126
H        6.9009315096    1.2459323450    1.1062915471
H        0.4921968870   -0.6211245418   -1.9664273076
H        1.3435387220   -0.2612078161    2.2622775260
H        6.3092195928    0.9326202764   -1.2653752980
H        5.5098140311    0.1822701794    2.8644801754
H        3.2587836752   -3.6719737111   -2.3616551247
H        4.2466526944   -3.0865894909   -1.0183295807
H        4.7961409575    0.1279567744   -2.9133438610
30   

C       -1.3181009271    0.8844121957    0.4538581182
C       -1.0969259019    0.1995033338   -0.7407762568
C       -0.3414411126    0.8654538000    1.4495891519
C        6.0089012958    0.6073179337    0.9254930818
C        0.0869787650   -0.5221218164   -0.9290982367
C        0.8453710496    0.1479352833    1.2603521886
C        5.6855696316    0.4954321039   -0.4231231420
C        5.1920252244   -0.0000139878    1.8745409600
C        1.0590044750   -0.6080423121    0.0866607032
C        3.6489236996   -0.7110058632    0.1371393470
C        4.5371467912   -0.1860326430   -0.8324858617
C        4.0288335265   -0.6742627277    1.4941428593
C        2.3335954269   -1.3137094197   -0.2598973565
C        4.0905403063   -1.6393000914   -2.6931826570
C        3.5131484912   -2.7479905691   -1.8039871208
N        2.2716020033   -2.2873591810   -1.1452314286
N        4.3502863562   -0.3793297525   -2.2018447589
O        4.3465828690   -1.8402554654   -3.8701314375
F        3.3075175333   -1.3165134237    2.4420547691
H       -2.2375708161    1.4397200829    0.6015710604
H       -1.8412832013    0.2290557658   -1.5284500464
H       -0.4989948209    1.4154330305    2.3704768506
H        6.9067305471    1.1351226146    1.2300168127
H        0.2292224172   -1.0233580244   -1.8808652436
H        1.5769216596    0.2006925930    2.0518372729
H        6.3533533598    0.9212217765   -1.1631947659
H        5.4591500246    0.0398765843    2.9238181934
H        3.2899802509   -3.6138517939   -2.4335155563
H        4.2589236542   -3.0561833097   -1.0656101619
H        4.8423249653    0.1978395236   -2.8714714762
30   

C       -1.3656831646    0.8121663792    0.5023629439
C       -1.2381960148   -0.0390994475   -0.5947243229
C       -0.2812665432    0.9976224646    1.3592295227
C        6.0111584588    0.5360278637    1.0092567701
C       -0.0368606442   -0.7195874896   -0.8227335962
C        0.9219689122    0.3203955170    1.1308923163
C        5.7276956560    0.4514313541   -0.3505621200
C        5.1441207304   -0.0536668718    1.9243676426
C        1.0542852004   -0.5929591113    0.0599327243
C        3.6412978568   -0.7031096428    0.1279889030
C        4.5735534750   -0.1905237967   -0.8057533777
C        3.9736097536   -0.6859274879    1.4980450464
C        2.3300522376   -1.2797451729   -0.3125517803
C        4.1413077425   -1.5987769030   -2.7037121034
C        3.5291104957   -2.7129042013   -1.8449829674
N        2.2793790497   -2.2505585810   -1.2023031648
N        4.4212429257   -0.3555453718   -2.1826943246
O        4.4163741393   -1.7832454984   -3.8790761365
F        3.1853393622   -1.2930864850    2.4161434971
H       -2.2976139913    1.3372426246    0.6795885996
H       -2.0701118410   -0.1714586881   -1.2771977350
H       -0.3676393875    1.6768157909    2.1998062248
H        6.9144509069    1.0319009895    1.3492738290
H        0.0202430286   -1.3557951429   -1.6996256925
H        1.7378559134    0.5377943982    1.8046750228
H        6.4308039757    0.8671975267   -1.0631146333
H        5.3749727103   -0.0300117473    2.9827535948
H        3.3090390843   -3.5652575599   -2.4937175126
H        4.2553370502   -3.0433085526   -1.0968522429
H        4.9416250854    0.2231030311   -2.8292691992
30   

C       -1.3924612605    0.7417621813    0.5855715491
C       -1.3365442002   -0.2434355384   -0.3997466176
C       -0.2312416932    1.0958892872    1.2714751875
C        6.0042967768    0.4594613525    1.0744322266
C       -0.1262386659   -0.8839998042   -0.6885068288
C        0.9801133257    0.4575186957    0.9831014647
C        5.7685207960    0.3944724189   -0.2956056761
C        5.0830725189   -0.1034544019    1.9523923185
C        1.0523946150   -0.5748946119    0.0188859514
C        3.6319643123   -0.6998571357    0.0949870440
C        4.6120822782   -0.2062491328   -0.7993177776
C        3.9092481485   -0.6933777593    1.4780943972
C        2.3251406760   -1.2411842249   -0.3933222778
C        4.1903292215   -1.5607679325   -2.7407220453
C        3.5279150488   -2.6757147684   -1.9220039347
N        2.2747834989   -2.2009902297   -1.2948049972
N        4.5001631504   -0.3412365672   -2.1832543726
O        4.4877135875   -1.7265024582   -3.9134272508
F        3.0561073842   -1.2589562108    2.3641084546
H       -2.3306814454    1.2374936015    0.8082606915
H       -2.2322349855   -0.5120594549   -0.9483167614
H       -0.2650671689    1.8758629726    2.0236796447
H        6.9099322159    0.9229434917    1.4518858515
H       -0.1305474018   -1.6336903786   -1.4725766412
H        1.8546892083    0.8025202193    1.5174202111
H        6.5097707673    0.7946926490   -0.9777596500
H        5.2715816029   -0.0893551448    3.0193427385
H        3.3028099719   -3.5074229918   -2.5953360808
H        4.2281179147   -3.0415237015   -1.1656488437
H        5.0562353682    0.2344664858   -2.8022174986
30   

C       -1.3945914674    0.6817361321    0.6823825828
C       -1.3809618070   -0.4160930077   -0.1782658238
C       -0.1918310203    1.1812173851    1.1817951066
C        5.9924160092    0.3837370904    1.1457135183
C       -0.1686602618   -1.0188420997   -0.5330618207
C        1.0209476557    0.5797546285    0.8281331019
C        5.8115870835    0.3273123281   -0.2329823219
C        5.0144151533   -0.1420933375    1.9839269201
C        1.0564389666   -0.5485410046   -0.0233314457
C        3.6261316705   -0.6973844874    0.0657491627
C        4.6569268894   -0.2321983412   -0.7862463061
C        3.8415208273   -0.6906450874    1.4608094038
C        2.3243245580   -1.1945799769   -0.4736934371
C        4.2459680669   -1.5346733694   -2.7694266256
C        3.5219972027   -2.6415246987   -1.9941025229
N        2.2685363513   -2.1436101627   -1.3857228913
N        4.5918315891   -0.3430293532   -2.1753537081
O        4.5684487809   -1.6855892618   -3.9374650135
F        2.9283770085   -1.2131098543    2.3125553808
H       -2.3343114616    1.1490583271    0.9546215926
H       -2.3117695584   -0.8027196237   -0.5775528803
H       -0.1959770038    2.0435983185    1.8387268796
H        6.8971568552    0.8151013790    1.5614542147
H       -0.2037953039   -1.8651875583   -1.2108188802
H        1.9294301662    1.0249728002    1.2135898011
H        6.5931279858    0.7044016140   -0.8825661259
H        5.1560826951   -0.1299802818    3.0581491142
H        3.2878141509   -3.4498731386   -2.6923400998
H        4.1893085867   -3.0482344458   -1.2290266845
H        5.1888869268    0.2225092609   -2.7648775390
