38

C     -1.12545   -0.93846    0.26103
C     -0.95972   -1.77066   -1.02133
C      0.19387   -0.16587    0.31326
C      0.54640   -2.13001   -1.04623
C      0.81085   -3.58058   -0.61683
C      2.30625   -3.90200   -0.53224
C      6.49952   -5.13677    1.45401
C      7.11299   -4.30380    2.58601
C      2.54833   -5.33722   -0.07388
C      5.01445   -4.80655    1.29939
C      8.58973   -4.57424    2.78083
N      1.18493   -1.17834   -0.09694
O      4.92765   -5.36945   -1.30993
O      4.38391   -7.22326    0.36508
F      9.09519   -3.82218    3.79214
F      8.83485   -5.87258    3.08847
F      9.31168   -4.28393    1.66915
S      4.30352   -5.81011   -0.04802
H     -2.00087   -0.28374    0.23990
H     -1.20926   -1.59127    1.13671
H     -1.59795   -2.65874   -1.04281
H     -1.21589   -1.16016   -1.89379
H      0.14841    0.69387   -0.37577
H      0.42568    0.21603    1.31333
H      0.94783   -1.99717   -2.06099
H      0.34154   -3.74468    0.36195
H      0.32374   -4.25882   -1.32994
H      2.76510   -3.19480    0.16578
H      2.78070   -3.75693   -1.50871
H      7.01636   -4.92799    0.51365
H      6.61565   -6.20234    1.66741
H      7.01006   -3.23244    2.38835
H      6.62211   -4.51412    3.54109
H      2.16170   -5.53809    0.92999
H      2.10655   -6.06859   -0.75890
H      4.44596   -5.04632    2.20296
H      4.85878   -3.75736    1.03544
H      2.00850   -0.74680   -0.50444
