29

C     -0.78605   -1.69352    0.52638
C     -2.09517   -1.30791    0.52529
C     -0.03005   -0.53552    0.12418
C     -0.93624    0.45892   -0.09235
C      1.99765   -0.80137    2.32889
C     -0.66357    1.86437   -0.50090
C      0.78279    1.92806   -1.03677
C      1.76816    1.17957   -0.12394
C      1.36671   -0.11397    4.32434
C      2.22824   -1.39277    4.48685
C      1.45412   -0.32854   -0.04344
N      1.42227    0.19625    2.89003
N      2.25927   -0.99318    0.99735
O     -2.20928    0.00842    0.14546
O      2.44644   -1.83707    3.12105
H     -0.41019   -2.67218    0.79694
H     -3.02292   -1.81306    0.75229
H     -1.37773    2.19832   -1.26227
H     -0.77662    2.53520    0.36147
H      0.80964    1.49623   -2.04559
H      1.09350    2.97384   -1.13098
H      2.79495    1.30661   -0.48298
H      1.71582    1.59058    0.88743
H      0.32576   -0.27813    4.62999
H      1.75760    0.71953    4.91714
H      3.20647   -1.19592    4.93691
H      1.73472   -2.20260    5.02829
H      1.77893   -0.79869   -0.98019
H      2.54152   -1.94287    0.79123
