39   

C        1.2293377968   -4.6081410070   -0.3259087432
C        2.3186312813   -3.2643909219    1.3422228322
C        0.7037302408    1.1874370580    1.4243367653
C        2.0611108800   -5.6841121002    0.0070917881
C        3.1314280457   -4.3513082356    1.6873867306
C       -0.0087048367    2.3579317697    1.7019667746
C       -1.4789870235    1.8804903868   -0.1299461431
C        1.3524509491   -3.3632279461    0.3245674790
C        0.3298593163    0.3422465668    0.3686488648
C       -0.7716380761    0.7030678397   -0.4283777341
C        3.0147128320   -5.5666049291    1.0137483907
C       -1.1097631020    2.7091129684    0.9255643314
C       -0.7442658075   -2.4225535658   -0.5773031451
C        0.5248826334   -2.1890954448   -0.0558720529
C        1.1433999936   -0.8482102778    0.0905892497
C        2.4015636298   -0.6031582889   -0.4540573826
C       -1.1807151056   -0.1265318603   -1.6119651870
C       -1.7522317324   -1.4496076509   -1.1348259222
C        3.8197895605   -0.7374119331    0.0752947803
O        3.8176205418   -6.6242259684    1.3283070175
O       -1.8124915378    3.8495154521    1.1836869956
H        0.5330233860   -4.7439005456   -1.1434774908
H        2.4189063297   -2.3405457645    1.8982104553
H        1.5630588831    0.9279087367    2.0316357991
H        1.9789969898   -6.6214599083   -0.5292648836
H        3.8528027476   -4.2385377640    2.4864308173
H        0.3057721132    2.9892823636    2.5233524370
H       -2.3322716891    2.1725978223   -0.7292823047
H       -1.0809514177   -3.4499303985   -0.6207072197
H        2.3713008115    0.2485014973   -1.1251699553
H       -1.9533604851    0.4052387944   -2.1759593383
H       -0.3361195847   -0.2943910343   -2.2875996766
H       -2.2350881634   -1.9390532184   -1.9864224334
H       -2.5323362518   -1.2641305812   -0.3887338424
H        3.8383376643   -0.5664389172    1.1552433559
H        4.4743603616   -0.0030498348   -0.4036155948
H        4.2069790291   -1.7381961421   -0.1374240537
H        4.4236258231   -6.3897279799    2.0506057080
H       -1.4268162777    4.3198134924    1.9415738820
39   

C        1.2399761468   -4.5873079220   -0.2560678691
C        2.3060822242   -3.1742447007    1.3696531424
C        0.6805991880    1.1613581066    1.4291189153
C        2.0492998388   -5.6549272279    0.1504377691
C        3.0965951950   -4.2520204721    1.7878990815
C       -0.0707618530    2.2933682095    1.7589753416
C       -1.5136617515    1.8628535482   -0.1083937602
C        1.3632095847   -3.3132966152    0.3352272220
C        0.3383876677    0.3611340047    0.3294951389
C       -0.7673544486    0.7241694825   -0.4570180574
C        2.9797965598   -5.4983508866    1.1732248421
C       -1.1777122285    2.6483094741    0.9915054173
C       -0.6979235916   -2.3901948010   -0.6718257675
C        0.5567378664   -2.1513510644   -0.1170832371
C        1.1734724134   -0.7982332567   -0.0000884784
C        2.3840404732   -0.5164295812   -0.5967094204
C       -1.1320012600   -0.0664966803   -1.6817332717
C       -1.6878098747   -1.4215354034   -1.2746572444
C        3.8073797990   -0.8948493298   -0.2367578486
O        3.7601601651   -6.5487733305    1.5602475196
O       -1.9185602714    3.7507240778    1.3026213021
H        0.5609594593   -4.7565769956   -1.0818196634
H        2.4048646907   -2.2243573591    1.8805169318
H        1.5427169846    0.8958523143    2.0299739893
H        1.9670496548   -6.6171940426   -0.3398582540
H        3.8003810652   -4.1079647422    2.5975353004
H        0.2173182125    2.8913480813    2.6143841899
H       -2.3714884364    2.1566622365   -0.7002575330
H       -1.0444967341   -3.4147947704   -0.6938603199
H        2.3823969097    0.4415544765   -1.1058125383
H       -1.8984467214    0.4730041240   -2.2468173797
H       -0.2658022840   -0.1914948545   -2.3389833986
H       -2.1064348649   -1.8990697778   -2.1660099381
H       -2.5164398421   -1.2751644088   -0.5736069784
H        3.9598918339   -0.8201361126    0.8433004635
H        4.5133057230   -0.2211531050   -0.7315199070
H        4.0179937567   -1.9180640558   -0.5619957240
H        4.3487011613   -6.2871126253    2.2876274939
H       -1.5570366247    4.1890419210    2.0910433497
39   

C        1.2292497357   -4.5519959917   -0.1970731405
C        2.3249485342   -3.0599325868    1.3361358655
C        0.6544842413    1.1196417778    1.4603423668
C        2.0101713718   -5.6094752343    0.2847738530
C        3.0884595589   -4.1258961676    1.8278078247
C       -0.1385516738    2.1998993547    1.8594510214
C       -1.5519244165    1.8514146329   -0.0496493675
C        1.3796212976   -3.2444929569    0.3099503259
C        0.3463535620    0.3888565203    0.3046007840
C       -0.7644591389    0.7645965155   -0.4654616079
C        2.9412392561   -5.4076119299    1.2989364112
C       -1.2513886419    2.5695609813    1.1061854866
C       -0.6417258951   -2.3318029961   -0.8042517473
C        0.5959214759   -2.0944772689   -0.2103866197
C        1.2018670247   -0.7290488780   -0.0973474485
C        2.3714002128   -0.4007209502   -0.7233489750
C       -1.0829705635    0.0377388883   -1.7426946114
C       -1.6118681274   -1.3567750124   -1.4357629912
C        3.7595811086   -0.9863811654   -0.5909691412
O        3.6926685727   -6.4488788085    1.7606875097
O       -2.0328559085    3.6209370564    1.4868177698
H        0.5483423058   -4.7641473836   -1.0108755883
H        2.4498205999   -2.0812841319    1.7833908378
H        1.5187434704    0.8392111444    2.0512611547
H        1.9037177100   -6.6008432947   -0.1383649937
H        3.7948527380   -3.9445372865    2.6276747704
H        0.1207927906    2.7454289326    2.7580801804
H       -2.4144545192    2.1551130183   -0.6294508305
H       -1.0018337248   -3.3512874890   -0.8215780693
H        2.4071130560    0.6223022352   -1.0826111493
H       -1.8469043445    0.5919690838   -2.2967804308
H       -0.1971717627   -0.0260847342   -2.3823079248
H       -1.9583570720   -1.8022072727   -2.3734396973
H       -2.4882662204   -1.2670211669   -0.7852081401
H        4.0704929231   -0.9988640163    0.4571116639
H        4.4767787499   -0.3827724732   -1.1550748870
H        3.7779042746   -2.0066652396   -0.9860193406
H        4.2823935539   -6.1541946357    2.4743818735
H       -1.6974086862    4.0093914434    2.3121038425
39   

C        1.2401373525   -4.5478987487   -0.1408942359
C        2.3475240968   -3.0064027053    1.3340999581
C        0.6599827326    1.0764212412    1.4680728983
C        1.9964385604   -5.5956144403    0.3984289844
C        3.0875644179   -4.0614922323    1.8814753019
C       -0.1608189327    2.1209677468    1.9044633259
C       -1.5565808811    1.8149125134   -0.0262968922
C        1.4079002154   -3.2209699020    0.3076071468
C        0.3733320581    0.3858441991    0.2827649965
C       -0.7416804550    0.7635211437   -0.4781887675
C        2.9213176161   -5.3635383583    1.4117544489
C       -1.2788213114    2.4934664790    1.1594626509
C       -0.5786709552   -2.3202411648   -0.8876527529
C        0.6453156932   -2.0810111907   -0.2662788395
C        1.2393202888   -0.7078861955   -0.1560251608
C        2.4100669962   -0.3605077898   -0.7494383112
C       -1.0299888741    0.0740986854   -1.7839478321
C       -1.5361704382   -1.3428361218   -1.5388276124
C        3.7218185669   -1.1062034279   -0.8010323597
O        3.6485300374   -6.3954318423    1.9298455454
O       -2.0879472847    3.5087781452    1.5782911268
H        0.5626653592   -4.7882317483   -0.9494545369
H        2.4894333126   -2.0107711538    1.7368459565
H        1.5258094578    0.7905811753    2.0540867298
H        1.8746259519   -6.6039363915    0.0220285370
H        3.7907176409   -3.8552874726    2.6782210867
H        0.0799997420    2.6354873051    2.8262796695
H       -2.4230691264    2.1201259512   -0.5992687564
H       -0.9465064180   -3.3366954283   -0.9013040537
H        2.5092978044    0.6927484158   -0.9894060897
H       -1.7939085432    0.6340332847   -2.3322524658
H       -0.1326275134    0.0496318536   -2.4100319767
H       -1.8342837575   -1.7677270366   -2.5022782665
H       -2.4409055208   -1.2888092855   -0.9241914334
H        4.1440365577   -1.2078554031    0.2023485911
H        4.4380187267   -0.5582440665   -1.4204812869
H        3.5778737343   -2.0998126228   -1.2363273073
H        4.2359818957   -6.0783256240    2.6357962879
H       -1.7700149880    3.8664514873    2.4242030625
39   

C        1.2420732435   -4.4911922622   -0.1556613564
C        2.3453315890   -2.9282818263    1.2998846506
C        0.6245068054    1.0997840530    1.4589195841
C        1.9897640186   -5.5321848968    0.4081943114
C        3.0775403463   -3.9763316250    1.8706413108
C       -0.2146110477    2.1202265836    1.9169488076
C       -1.6028283380    1.8335395225   -0.0230297445
C        1.4112665373   -3.1569622756    0.2707011285
C        0.3502423415    0.4316253967    0.2578985474
C       -0.7694847493    0.8063428171   -0.4962341852
C        2.9085453490   -5.2858746956    1.4236397641
C       -1.3380543857    2.4900299456    1.1783988629
C       -0.5611239978   -2.2686833561   -0.9620215364
C        0.6538854183   -2.0235532367   -0.3253322463
C        1.2261581487   -0.6428978940   -0.2049514004
C        2.4193218151   -0.2848782522   -0.7334402375
C       -1.0386803077    0.1406104676   -1.8188580265
C       -1.5205640098   -1.2922013390   -1.6139654679
C        3.6457043825   -1.1283670117   -0.9632045040
O        3.6274170585   -6.3113312053    1.9655844019
O       -2.1649751473    3.4815394368    1.6189427888
H        0.5688939790   -4.7448461070   -0.9635904466
H        2.4915724842   -1.9262716655    1.6850170252
H        1.4932596865    0.8143261760    2.0407890418
H        1.8654765577   -6.5467938143    0.0499047498
H        3.7769785784   -3.7585030910    2.6675908533
H        0.0158294572    2.6176484256    2.8507508232
H       -2.4732445427    2.1367645680   -0.5910196150
H       -0.9251383763   -3.2862224260   -0.9819513432
H        2.5769228051    0.7805694491   -0.8622895246
H       -1.8077376927    0.7001016108   -2.3603601406
H       -0.1363008075    0.1471913690   -2.4382221213
H       -1.7923130407   -1.7011793893   -2.5919725551
H       -2.4380779369   -1.2674879935   -1.0166917671
H        4.1526356867   -1.3339729827   -0.0165261200
H        4.3439736483   -0.5969971976   -1.6166225970
H        3.3777690959   -2.0737500476   -1.4446960920
H        4.2111015852   -5.9839915496    2.6700041090
H       -1.8550252593    3.8241531791    2.4740195977
39   

C        1.2493210397   -4.4804670938   -0.1435429037
C        2.3436915003   -2.9073620429    1.3077539474
C        0.6146840125    1.1032588339    1.4511602202
C        1.9909339740   -5.5179306201    0.4345677040
C        3.0701471210   -3.9518315200    1.8922934623
C       -0.2339470789    2.1136556103    1.9138509991
C       -1.6169564349    1.8263201399   -0.0300725544
C        1.4170559990   -3.1428958793    0.2730626215
C        0.3474982179    0.4398692914    0.2455856811
C       -0.7743519955    0.8087011615   -0.5074394661
C        2.9024719577   -5.2647126003    1.4547637033
C       -1.3594976329    2.4780615031    1.1756774448
C       -0.5467505492   -2.2639201998   -0.9804364642
C        0.6644920463   -2.0135086264   -0.3384912802
C        1.2265625299   -0.6297051992   -0.2222089154
C        2.4560990557   -0.2834620634   -0.6591222756
C       -1.0340574057    0.1468224883   -1.8340537926
C       -1.5061116294   -1.2910981874   -1.6389567032
C        3.6017059608   -1.1815321602   -1.0401860412
O        3.6158641112   -6.2867580824    2.0102133292
O       -2.1958125776    3.4594043792    1.6212139503
H        0.5819172526   -4.7401335927   -0.9543289726
H        2.4899883706   -1.9024482990    1.6852070271
H        1.4837445235    0.8207025697    2.0340018322
H        1.8675452637   -6.5352830478    0.0838056217
H        3.7643637386   -3.7284589285    2.6922725040
H       -0.0096828418    2.6069593244    2.8513493853
H       -2.4890160980    2.1252421323   -0.5977867218
H       -0.9100305086   -3.2817577352   -0.9965287947
H        2.6704822727    0.7793154897   -0.6907412829
H       -1.8043988654    0.7035864797   -2.3765150613
H       -0.1288013534    0.1629489694   -2.4491285941
H       -1.7659629115   -1.6983317721   -2.6209021138
H       -2.4292963466   -1.2752070089   -1.0501911038
H        4.1547838798   -1.4973967245   -0.1514840620
H        4.2907961086   -0.6424368024   -1.6969956640
H        3.2407236494   -2.0645813111   -1.5761928139
H        4.1954980427   -5.9544182421    2.7156369685
H       -1.8910900191    3.7981095882    2.4797259529
39   

C        1.2853731497   -4.4492958406   -0.1424888306
C        2.3661921591   -2.8758519104    1.3184801302
C        0.6298534301    1.1395430809    1.4378597878
C        2.0264056761   -5.4857877578    0.4378974442
C        3.0921048300   -3.9195538634    1.9052492516
C       -0.2238501215    2.1468367994    1.8977367197
C       -1.6059621584    1.8460663805   -0.0446879855
C        1.4464800592   -3.1118961419    0.2774426576
C        0.3661025062    0.4709187139    0.2337747504
C       -0.7583124825    0.8311995857   -0.5190828586
C        2.9309761220   -5.2320346287    1.4640298518
C       -1.3514442093    2.5030597570    1.1588499874
C       -0.5187757037   -2.2419874030   -0.9779161059
C        0.6925557208   -1.9848725729   -0.3385699529
C        1.2474666777   -0.5987596955   -0.2312019240
C        2.5156016120   -0.2750916368   -0.5591040231
C       -1.0149195149    0.1630928130   -1.8430095602
C       -1.4813447282   -1.2758272174   -1.6417489036
C        3.6001785020   -1.1780802486   -1.0773583548
O        3.6439619786   -6.2532198966    2.0215836042
O       -2.1928139353    3.4811901479    1.6019160630
H        0.6239149985   -4.7090694912   -0.9581577566
H        2.5072991418   -1.8716267624    1.6994802407
H        1.4992727334    0.8627825331    2.0229619513
H        1.9080966979   -6.5027310399    0.0841977702
H        3.7807625249   -3.6958946583    2.7099311537
H       -0.0021798449    2.6437432389    2.8339623793
H       -2.4798781122    2.1384524607   -0.6129231601
H       -0.8799533363   -3.2607214170   -0.9866066748
H        2.7740394501    0.7763486025   -0.4960459287
H       -1.7870443809    0.7147101323   -2.3881631899
H       -0.1092221594    0.1800851013   -2.4574787072
H       -1.7387353350   -1.6885157755   -2.6220531669
H       -2.4051095542   -1.2609101805   -1.0538585787
H        4.1816633941   -1.5947190095   -0.2503803883
H        4.2787368524   -0.6090099443   -1.7196722524
H        3.1766301124   -1.9954241844   -1.6690041796
H        4.2184526234   -5.9207468641    2.7311302000
H       -1.8896134794    3.8238697876    2.4593953679
39   

C        1.2634059117   -4.4557516790   -0.1494005003
C        2.3406182210   -2.8916214164    1.3238894171
C        0.6009595919    1.1430919370    1.4201253426
C        2.0065962043   -5.4952842066    0.4225103322
C        3.0685772220   -3.9386216630    1.9023824996
C       -0.2533442187    2.1529359475    1.8730651768
C       -1.6333733197    1.8398765035   -0.0683997730
C        1.4214190028   -3.1210892819    0.2805612147
C        0.3397769054    0.4671485124    0.2186278411
C       -0.7855274888    0.8217559678   -0.5355323010
C        2.9105208016   -5.2478524623    1.4505857537
C       -1.3798513505    2.5048275034    1.1308130316
C       -0.5519818954   -2.2536032140   -0.9607706586
C        0.6636874697   -1.9930439336   -0.3307286081
C        1.2206781028   -0.6073755438   -0.2402504962
C        2.5205051619   -0.3147035992   -0.4566651193
C       -1.0452101847    0.1414392407   -1.8521549944
C       -1.5154214391   -1.2932209108   -1.6315783627
C        3.5623845272   -1.1811952861   -1.1071506230
O        3.6256072893   -6.2720017580    1.9999590473
O       -2.2218152594    3.4854927836    1.5671056204
H        0.6030405061   -4.7100686658   -0.9677601008
H        2.4784778086   -1.8911950138    1.7154351630
H        1.4681000323    0.8697831360    2.0101953942
H        1.8906207153   -6.5095271400    0.0603851825
H        3.7561771562   -3.7201217503    2.7093689911
H       -0.0331944717    2.6549072678    2.8069540491
H       -2.5074263582    2.1278442908   -0.6386624293
H       -0.9145582012   -3.2719800939   -0.9575635147
H        2.8117923011    0.7180041430   -0.2993390799
H       -1.8169156670    0.6890317674   -2.4019239961
H       -0.1403625641    0.1487205193   -2.4681028727
H       -1.7781610073   -1.7169964895   -2.6057045351
H       -2.4365678934   -1.2686304336   -1.0398861388
H        4.1636058989   -1.6917925033   -0.3496990111
H        4.2285887695   -0.5647104481   -1.7178411732
H        3.0957151904   -1.9281479751   -1.7567214707
H        4.1993829781   -5.9440583214    2.7121756367
H       -1.9194807977    3.8334988369    2.4227438993
39   

C        1.2454195605   -4.4737068771   -0.1623769355
C        2.3204855520   -2.9292713774    1.3325333718
C        0.5824302711    1.1406927147    1.3945514914
C        1.9907607318   -5.5202082693    0.3935375108
C        3.0506654086   -3.9834970015    1.8951142225
C       -0.2698323513    2.1584122029    1.8330388747
C       -1.6408805323    1.8313655051   -0.1115674326
C        1.4013522303   -3.1446280744    0.2857276350
C        0.3271965523    0.4542620040    0.1963763069
C       -0.7953301589    0.8046245384   -0.5640983282
C        2.8951475111   -5.2861953122    1.4241118257
C       -1.3902806939    2.5081493148    1.0813544840
C       -0.5807181036   -2.2738917076   -0.9348868917
C        0.6408792531   -2.0122171541   -0.3162680211
C        1.2073580351   -0.6293784800   -0.2493445511
C        2.5313541953   -0.3726870207   -0.3491022739
C       -1.0592468681    0.1056439556   -1.8692418174
C       -1.5412565451   -1.3196677516   -1.6181170732
C        3.5565162665   -1.1625556930   -1.1145980325
O        3.6127873266   -6.3169333811    1.9576030316
O       -2.2302132598    3.4967092435    1.5035045551
H        0.5857210487   -4.7167321603   -0.9848323140
H        2.4547481266   -1.9361499444    1.7428177007
H        1.4428594924    0.8698806096    1.9954435268
H        1.8765004465   -6.5291353148    0.0163283857
H        3.7376658782   -3.7758195536    2.7054476360
H       -0.0529419486    2.6679043901    2.7636247002
H       -2.5120766987    2.1157784519   -0.6879360821
H       -0.9476380404   -3.2907048675   -0.9157030780
H        2.8425194907    0.6345300287   -0.0953001619
H       -1.8272585400    0.6491688453   -2.4281283757
H       -0.1545603503    0.0938253857   -2.4853527654
H       -1.8128195850   -1.7602846622   -2.5822879864
H       -2.4588200003   -1.2759815248   -1.0219169124
H        4.1716664353   -1.7526771860   -0.4293392566
H        4.2089756837   -0.4849980998   -1.6731465838
H        3.0705573770   -1.8384376761   -1.8250896253
H        4.1878049959   -5.9981439549    2.6729513442
H       -1.9301274234    3.8526899883    2.3566572860
39   

C        1.2312035309   -4.4946109040   -0.1449517485
C        2.3013694775   -2.9772706018    1.3802443378
C        0.5749291677    1.1348708042    1.3886160815
C        1.9766132664   -5.5506207977    0.3923152506
C        3.0315843521   -4.0412789902    1.9243165522
C       -0.2765544961    2.1621089474    1.8053324189
C       -1.6229676328    1.8234858766   -0.1531102979
C        1.3855679689   -3.1732611185    0.3263564023
C        0.3353443799    0.4385090836    0.1911825285
C       -0.7785324522    0.7862311822   -0.5836709474
C        2.8793804271   -5.3349031253    1.4280543995
C       -1.3835437110    2.5119885322    1.0349844581
C       -0.5979844976   -2.2931995677   -0.8792579009
C        0.6284346029   -2.0337317552   -0.2685954759
C        1.2152580444   -0.6581268831   -0.2331263238
C        2.5530117694   -0.4385905814   -0.2165196383
C       -1.0423534776    0.0648571810   -1.8754427225
C       -1.5463045703   -1.3453941694   -1.5874708663
C        3.5873489972   -1.1159534348   -1.0760158063
O        3.5985754905   -6.3743747873    1.9421633165
O       -2.2230292431    3.5095864555    1.4362381407
H        0.5743808241   -4.7219489159   -0.9743530664
H        2.4314975845   -1.9937900190    1.8137861307
H        1.4212909866    0.8650104838    2.0094244329
H        1.8646509208   -6.5521923511   -0.0046564005
H        3.7160181352   -3.8483830044    2.7404360111
H       -0.0699290285    2.6782797592    2.7345904419
H       -2.4867479926    2.1049506206   -0.7419365354
H       -0.9742050738   -3.3062427849   -0.8390005771
H        2.8709488803    0.5354628743    0.1372717298
H       -1.8001816269    0.6054233177   -2.4508421548
H       -0.1343534269    0.0249959586   -2.4854266411
H       -1.8232942576   -1.8077063152   -2.5398516186
H       -2.4634848621   -1.2732967021   -0.9933583895
H        4.2068830965   -1.7809620435   -0.4674228050
H        4.2315386928   -0.3688029411   -1.5487500854
H        3.1045790642   -1.7068993799   -1.8605383754
H        4.1760846906   -6.0674443105    2.6606664326
H       -1.9323387114    3.8719001296    2.2899912040
39   

C        1.1933558294   -4.5113143572   -0.1128879585
C        2.2634433484   -3.0192160818    1.4364717850
C        0.5597943612    1.1492603749    1.3532398583
C        1.9397505130   -5.5758803381    0.4054793884
C        2.9947272636   -4.0920461801    1.9618174235
C       -0.2841377606    2.1968044008    1.7321888554
C       -1.6001095971    1.8328881171   -0.2405513989
C        1.3489151377   -3.1971347703    0.3779794244
C        0.3370085118    0.4310687002    0.1633111668
C       -0.7635395683    0.7740941315   -0.6331612379
C        2.8442754385   -5.3769174691    1.4428239769
C       -1.3708896360    2.5459263023    0.9344989061
C       -0.6352925022   -2.3080539343   -0.8126015455
C        0.5981732881   -2.0510091620   -0.2145758759
C        1.2123121637   -0.6873709240   -0.2253971645
C        2.5565712203   -0.5052566544   -0.1067887229
C       -1.0323130270    0.0144434639   -1.9004395972
C       -1.5677712417   -1.3705917435   -1.5542705853
C        3.6218125278   -1.0369009739   -1.0329322893
O        3.5671907277   -6.4238594274    1.9361580389
O       -2.2030036298    3.5635547180    1.2991166557
H        0.5372466963   -4.7237228565   -0.9470236113
H        2.3915186107   -2.0446008632    1.8897409438
H        1.3852601633    0.8825698972    2.0025712369
H        1.8287453040   -6.5703370302   -0.0092458594
H        3.6792310092   -3.9128556479    2.7809725731
H       -0.0877959767    2.7287900581    2.6547626604
H       -2.4524223142    2.1099676870   -0.8478472228
H       -1.0240574223   -3.3150031134   -0.7421434694
H        2.8700874163    0.4269935098    0.3473856317
H       -1.7768741755    0.5477651963   -2.4994144240
H       -0.1222719109   -0.0684752720   -2.5029312227
H       -1.8582435435   -1.8651579925   -2.4861807831
H       -2.4808625154   -1.2548371829   -0.9606337477
H        4.2445837183   -1.7668232117   -0.5076790898
H        4.2562076278   -0.2200521377   -1.3892700725
H        3.1628514945   -1.5271216884   -1.8970051198
H        4.1528805916   -6.1268458996    2.6521796577
H       -1.9211841835    3.9413770131    2.1491391935
39   

C        1.1562836609   -4.5250579614   -0.0971083773
C        2.2368284454   -3.0532292798    1.4639591663
C        0.5522244610    1.1528453435    1.3139846631
C        1.9030086084   -5.5971856325    0.4045213825
C        2.9686048654   -4.1338799870    1.9727810747
C       -0.2839546489    2.2161129175    1.6644470851
C       -1.5757979731    1.8371013681   -0.3193163986
C        1.3184133902   -3.2163280518    0.4062932295
C        0.3433731761    0.4201013179    0.1281045169
C       -0.7472856414    0.7616845834   -0.6835513847
C        2.8141088900   -5.4120262424    1.4384611191
C       -1.3532965957    2.5672865950    0.8458276987
C       -0.6672163152   -2.3171168393   -0.7677766468
C        0.5744903895   -2.0642095352   -0.1846221240
C        1.2136119653   -0.7142019865   -0.2399069068
C        2.5614861687   -0.5563703900   -0.0514792858
C       -1.0244626650   -0.0268302351   -1.9301834937
C       -1.5863052314   -1.3885523294   -1.5366405014
C        3.6721392449   -0.8851878383   -1.0220480445
O        3.5399361275   -6.4655602250    1.9131524055
O       -2.1775020562    3.6006430002    1.1831296532
H        0.4966551434   -4.7252725938   -0.9316804864
H        2.3682171645   -2.0851890806    1.9297612460
H        1.3566911457    0.8890662420    1.9894749261
H        1.7884952460   -6.5861259195   -0.0222809495
H        3.6575363810   -3.9660553783    2.7906062286
H       -0.0955267850    2.7582231282    2.5828013725
H       -2.4190296260    2.1120027781   -0.9400887028
H       -1.0687599090   -3.3168461156   -0.6683935055
H        2.8718455926    0.2678189810    0.5772687750
H       -1.7590129677    0.5010546669   -2.5460699113
H       -0.1149941366   -0.1454337193   -2.5274662516
H       -1.8894213291   -1.9085610598   -2.4504587114
H       -2.4948230540   -1.2360795882   -0.9441577749
H        4.5720923877   -0.3103750780   -0.7846005712
H        3.3598213798   -0.6460903376   -2.0428765921
H        3.9099007178   -1.9517732805   -0.9689188721
H        4.1378959453   -6.1762444606    2.6221216994
H       -1.9011010608    3.9896563387    2.0299035582
39   

C        1.1011292416   -4.5612879165   -0.0351959288
C        2.2281202364   -3.0720155188    1.4752679815
C        0.5827447266    1.1264318501    1.2553498165
C        1.8313841564   -5.6352474760    0.4862251796
C        2.9435589181   -4.1540943900    2.0042399625
C       -0.2492869232    2.1956365424    1.5964812753
C       -1.5333663887    1.8137147413   -0.3904428534
C        1.2949135953   -3.2432262305    0.4320105252
C        0.3783887633    0.3883441469    0.0702556499
C       -0.7097898599    0.7309612508   -0.7446725192
C        2.7575420275   -5.4421925130    1.5050527667
C       -1.3120241097    2.5491354791    0.7713468633
C       -0.6802024091   -2.3377359433   -0.7554486961
C        0.5689595267   -2.0927535384   -0.1840229951
C        1.2388453049   -0.7599312932   -0.2887327245
C        2.5933197107   -0.6050998287   -0.0853803012
C       -0.9961761126   -0.0727229226   -1.9786280462
C       -1.5799672737   -1.4167322391   -1.5563287577
C        3.7405458128   -0.6805706979   -1.0726426627
O        3.4674487025   -6.4977625820    1.9989612697
O       -2.1330540231    3.5872904596    1.1015313194
H        0.4292020022   -4.7700166105   -0.8577679379
H        2.3838180314   -2.0964076188    1.9163469876
H        1.3753562595    0.8646108054    1.9446013006
H        1.6923225092   -6.6322198898    0.0862380204
H        3.6447233841   -3.9796097606    2.8101733533
H       -0.0635274901    2.7394879469    2.5144026435
H       -2.3742522980    2.0879345791   -1.0146203727
H       -1.1038147893   -3.3240382604   -0.6199875235
H        2.8773763458    0.0972396646    0.6855224087
H       -1.7214406154    0.4549830575   -2.6055494304
H       -0.0874438569   -0.2173328392   -2.5712152824
H       -1.8836770048   -1.9552755000   -2.4591107063
H       -2.4905884469   -1.2368884321   -0.9747890784
H        4.5888133682   -0.0837575799   -0.7242991626
H        3.4192491373   -0.3019171982   -2.0474893204
H        4.0625252922   -1.7197948824   -1.1880540933
H        4.0822931837   -6.2019264847    2.6905571692
H       -1.8612871399    3.9748785008    1.9505071756
