30   

C       -1.4854496266    0.9634570108    0.9076648718
C       -1.2341565759   -0.2557729811    1.5397196438
C       -0.5037057804    1.5386456903    0.0991574730
C        5.5528356387    1.2263095764   -1.2597803739
C       -0.0016993567   -0.8969106170    1.3688503563
C        0.7285132926    0.8985446201   -0.0723263772
C        5.1995653660    0.0113284169   -1.8384493724
C        4.8896724472    1.6546003530   -0.1147635977
C        1.0067420072   -0.3261700446    0.5726806518
C        3.4642495892   -0.3164043582   -0.1651246874
C        4.1827640340   -0.7788850185   -1.2957702589
C        3.8575028084    0.8967287166    0.4419743438
C        2.2913810884   -1.0575555883    0.3842140039
C        3.8259364242   -3.1611583890   -1.1471084588
C        3.5598034027   -3.1145705626    0.3600486147
N        2.3393171207   -2.3409428193    0.6754395755
N        3.9382354846   -2.0142884354   -1.8967849113
O        3.9824479545   -4.2220751800   -1.7310545064
F        3.2554269281    1.3460256524    1.5678909094
H       -2.4412433473    1.4580467457    1.0395461512
H       -1.9960911467   -0.7101709227    2.1628122752
H       -0.6985469828    2.4799548947   -0.4020480027
H        6.3487014590    1.8259582352   -1.6892911433
H        0.1592920939   -1.8455300430    1.8701540479
H        1.4601590649    1.3604467644   -0.7250841412
H        5.7387436952   -0.3302957613   -2.7145525787
H        5.1701039987    2.5883986734    0.3580413160
H        3.4378082175   -4.1412079131    0.7163537721
H        4.4288073976   -2.6890521701    0.8697744428
H        4.2578055238   -2.1997578092   -2.8387603726
30   

C       -1.4479566937    1.0163146286    0.9392904778
C       -1.1304369874   -0.1085336567    1.7044524433
C       -0.5603878160    1.4587881410   -0.0441767051
C        5.5529696238    1.2402756092   -1.1688076185
C        0.0729570879   -0.7897681393    1.4875012855
C        0.6425579094    0.7778032495   -0.2605654915
C        5.2415843012    0.0296099921   -1.7791362967
C        4.8295066517    1.6471573940   -0.0532962705
C        0.9777853201   -0.3570938044    0.5053286860
C        3.4370081711   -0.3438618499   -0.1901524682
C        4.2097049352   -0.7797012386   -1.2961179548
C        3.7816769500    0.8705277280    0.4450477988
C        2.2481215831   -1.1034158293    0.2910800637
C        3.8355684176   -3.1682462672   -1.2352281352
C        3.4986721316   -3.1685023681    0.2576073401
N        2.2729852291   -2.3937338997    0.5478947570
N        3.9980394304   -1.9997425050   -1.9402434991
O        4.0098049078   -4.2111106914   -1.8459847132
F        3.1218681098    1.3034412008    1.5447165186
H       -2.3811000581    1.5423251615    1.1068893344
H       -1.8174070165   -0.4568559896    2.4673167250
H       -0.8048847027    2.3290111020   -0.6426238867
H        6.3606993238    1.8548959432   -1.5525383026
H        0.2991933208   -1.6620182272    2.0918488969
H        1.3134055203    1.1322467017   -1.0353745246
H        5.8234835458   -0.2919054849   -2.6352813971
H        5.0738280963    2.5793752589    0.4421042101
H        3.3520323075   -4.2052822452    0.5729378158
H        4.3474182419   -2.7696569397    0.8202499203
H        4.3615301344   -2.1589749472   -2.8710543201
30   

C       -1.4080196736    1.0523478275    0.9474831009
C       -0.9993840036    0.0430000323    1.8235620089
C       -0.6373294443    1.3465880177   -0.1803385665
C        5.5647431505    1.2492398486   -1.0697715845
C        0.1766908086   -0.6726767159    1.5705439685
C        0.5382038357    0.6303893452   -0.4314264045
C        5.2886596062    0.0489617333   -1.7159581790
C        4.7894243622    1.6307210179    0.0191625942
C        0.9550072189   -0.3946449240    0.4381513116
C        3.4220056168   -0.3697718904   -0.2112912901
C        4.2425910626   -0.7763596668   -1.2943038548
C        3.7269024117    0.8380621261    0.4574801169
C        2.2192823203   -1.1462883211    0.2003763477
C        3.8577869778   -3.1673722501   -1.3252331515
C        3.4581688409   -3.2159916277    0.1506817530
N        2.2274610997   -2.4423650973    0.4212999897
N        4.0611384305   -1.9776572133   -1.9819778801
O        4.0499600605   -4.1901887161   -1.9638165859
F        3.0181545565    1.2502443693    1.5343559679
H       -2.3195858198    1.6058049401    1.1430524342
H       -1.5931741789   -0.1870675818    2.7008615469
H       -0.9498529027    2.1302200092   -0.8611098984
H        6.3834914146    1.8767095027   -1.4064251729
H        0.4846194000   -1.4526878457    2.2589334253
H        1.1292070680    0.8694830807   -1.3088874789
H        5.9080328119   -0.2505286352   -2.5535838342
H        5.0035650149    2.5560940427    0.5406419253
H        3.2922282399   -4.2619416113    0.4233150827
H        4.2859740236   -2.8440969834    0.7609335550
H        4.4643680320   -2.1090526648   -2.9007115242
30   

C       -1.3746514575    1.0758046007    0.9324058598
C       -0.8515927911    0.2233017049    1.9089081834
C       -0.7361988187    1.1874669961   -0.3057866805
C        5.5859744809    1.2530609623   -0.9538267044
C        0.3055413916   -0.5188820414    1.6451010390
C        0.4204532514    0.4442042963   -0.5661711173
C        5.3296190512    0.0716231526   -1.6408520275
C        4.7787831447    1.6039731023    0.1217446432
C        0.9461565219   -0.4278208822    0.4029578978
C        3.4219240389   -0.3918800853   -0.2007514707
C        4.2726855052   -0.7654884576   -1.2729909385
C        3.7050633614    0.7992552559    0.5078701609
C        2.2093964419   -1.1829946519    0.1494472314
C        3.8785600472   -3.1541958958   -1.4019698174
C        3.4354037494   -3.2565768042    0.0583517511
N        2.2028350809   -2.4848504844    0.3249490102
N        4.1090552972   -1.9421829632   -2.0066541374
O        4.0822826492   -4.1531107099   -2.0738963908
F        2.9680320929    1.1848786215    1.5751665148
H       -2.2711413913    1.6505604003    1.1360416689
H       -1.3408633926    0.1370211536    2.8723941801
H       -1.1355492662    1.8513913859   -1.0640358427
H        6.4129769987    1.8902802488   -1.2494473418
H        0.7086348782   -1.1750341932    2.4091235733
H        0.9148667688    0.5426024242   -1.5265200470
H        5.9721422381   -0.2029846908   -2.4695048151
H        4.9760174675    2.5153387700    0.6736342773
H        3.2548049180   -4.3110159711    0.2851798251
H        4.2477477973   -2.9151177491    0.7059851040
H        4.5385340067   -2.0421880149   -2.9174258291
30   

C       -1.3916776267    1.0869786798    0.8892939897
C       -0.7309605324    0.4670977929    1.9534269690
C       -0.8886675689    0.9585193905   -0.4079758578
C        5.6274698379    1.2245430962   -0.8277637784
C        0.4282221942   -0.2815938622    1.7183203077
C        0.2705476136    0.2090763942   -0.6375329505
C        5.3444617470    0.0817798033   -1.5668219578
C        4.8311091910    1.5415941192    0.2657061985
C        0.9367403781   -0.4283160278    0.4227237435
C        3.4308166150   -0.4093865093   -0.1413538925
C        4.2715069294   -0.7493705425   -1.2335838667
C        3.7417598649    0.7426649822    0.6189769733
C        2.2006859716   -1.1926485338    0.1667090963
C        3.8312837873   -3.1212431845   -1.4766308588
C        3.3800951236   -3.2848888175   -0.0245681349
N        2.1621536860   -2.5007879335    0.2705528583
N        4.0823492779   -1.8858077094   -2.0227715924
O        4.0180396075   -4.0901704164   -2.1957426133
F        3.0205465383    1.0968929807    1.7064061667
H       -2.2901848537    1.6662964799    1.0698187757
H       -1.1153221343    0.5659182903    2.9622006723
H       -1.3955291780    1.4397112547   -1.2367089048
H        6.4661274266    1.8579846736   -1.0975005081
H        0.9371390687   -0.7580791785    2.5491850331
H        0.6582332540    0.1178484527   -1.6463834068
H        5.9781050039   -0.1669354397   -2.4103403829
H        5.0489249618    2.4225998933    0.8576809028
H        3.1761411639   -4.3449151706    0.1505230361
H        4.1958545947   -2.9913651938    0.6419641220
H        4.5098128855   -1.9500422979   -2.9377095094
30   

C       -1.2749173761    0.7195760383    0.6763969609
C       -0.4807091493    0.4407225491    1.7910275048
C       -0.8366929809    0.3437829600   -0.5949560372
C        5.8629401660    1.3333159517   -0.7000652872
C        0.7486887373   -0.2099599020    1.6321441983
C        0.3933071124   -0.3055744577   -0.7464269013
C        5.5994203526    0.2441960869   -1.5210353571
C        5.0835580862    1.5337791982    0.4315783424
C        1.2052906993   -0.5911517019    0.3652192855
C        3.7296417080   -0.4215961943   -0.1028574088
C        4.5609082036   -0.6454844050   -1.2335427896
C        4.0275495104    0.6743620492    0.7422024780
C        2.5272318271   -1.2719643713    0.1447278193
C        4.2256311148   -3.0085348846   -1.6420398256
C        3.7892460660   -3.2941871106   -0.2044858690
N        2.5376968403   -2.5846372584    0.1340294824
N        4.3994505271   -1.7260517212   -2.1034189357
O        4.4562693279   -3.9142214028   -2.4277865800
F        3.3335548225    0.9184132423    1.8739182450
H       -2.2284633714    1.2210978146    0.7978635257
H       -0.8185074535    0.7235450697    2.7815121803
H       -1.4493086256    0.5528374083   -1.4646073259
H        6.6746662430    2.0138583778   -0.9352457753
H        1.3423307297   -0.4372392264    2.5104426767
H        0.7251297365   -0.5954741403   -1.7376562318
H        6.2221666061    0.0834202778   -2.3935178108
H        5.2893008924    2.3702919515    1.0888250533
H        3.6313795005   -4.3715891871   -0.1036275956
H        4.5920045911   -3.0105021883    0.4818089129
H        4.8163816829   -1.7047164579   -3.0251827674
30   

C       -1.3051611620    0.6953301353    0.5625808453
C       -0.4303057605    0.7247488874    1.6494538966
C       -0.9341119470    0.0198658892   -0.5996823257
C        5.9230808874    1.3024173425   -0.5798964959
C        0.8148485308    0.0883425282    1.5708807315
C        0.3112416396   -0.6123689832   -0.6717403938
C        5.5590143016    0.3103056760   -1.4807244462
C        5.2456551313    1.4014519937    0.6281011088
C        1.2153879045   -0.5823349093    0.4074991836
C        3.7654880521   -0.4308156642    0.0001048458
C        4.5119771131   -0.5713174207   -1.2010169379
C        4.1846278727    0.5459018119    0.9340781655
C        2.5418808964   -1.2651962186    0.2249849833
C        4.1328261752   -2.8918802138   -1.7479466253
C        3.7603263728   -3.2714686415   -0.3124295622
N        2.5287145516   -2.5739395205    0.1134392765
N        4.2694074976   -1.5797056241   -2.1362034715
O        4.3268438230   -3.7442782888   -2.6004002551
F        3.6198625119    0.6665327564    2.1514672986
H       -2.2706352032    1.1848093402    0.6244528778
H       -0.7210832766    1.2309859861    2.5629284222
H       -1.6100844982   -0.0179147768   -1.4464255502
H        6.7400597448    1.9787287079   -0.8090458422
H        1.4303381643    0.0886771588    2.4587707348
H        0.5872101212   -1.1362423357   -1.5809639404
H        6.1125151364    0.2151431974   -2.4077988172
H        5.5406997238    2.1511301348    1.3526512539
H        3.5958451812   -4.3519328844   -0.2748280238
H        4.5930166241   -3.0368091582    0.3566225755
H        4.6342084208   -1.4980925487   -3.0764901269
30   

C       -1.3625089431    0.6233422107    0.5240598493
C       -0.3881175885    0.9395206123    1.4703368485
C       -1.0663488605   -0.2914055570   -0.4843305477
C        5.9468422793    1.3164323074   -0.4267223674
C        0.8805870571    0.3491092431    1.4055235977
C        0.2015117407   -0.8777169782   -0.5442844531
C        5.5133828918    0.4476389137   -1.4217473449
C        5.3468354100    1.2665824596    0.8267375251
C        1.2103537855   -0.5631871582    0.3913634498
C        3.7753018618   -0.4187882330    0.0482782042
C        4.4619223090   -0.4423221586   -1.1911358561
C        4.2842844976    0.3958270515    1.0824582115
C        2.5378759208   -1.2458880739    0.2399356253
C        4.0633445218   -2.7106971696   -1.8922529756
C        3.7487706484   -3.1995613999   -0.4722571836
N        2.5262810967   -2.5458535967    0.0429013554
N        4.1712918180   -1.3707202066   -2.1925704654
O        4.2301325352   -3.4983960171   -2.8102369158
F        3.8123721896    0.3195771843    2.3448001807
H       -2.3445889544    1.0798811522    0.5757397330
H       -0.6164607020    1.6415533343    2.2642726806
H       -1.8176881364   -0.5514618755   -1.2213778409
H        6.7668219747    2.0011557239   -0.6168992877
H        1.5747777511    0.6201617374    2.1833147946
H        0.4101446656   -1.5907014086   -1.3353612912
H        6.0202598665    0.4488322425   -2.3798411999
H        5.7099854550    1.9023589745    1.6253860563
H        3.5939149622   -4.2815464104   -0.5068900523
H        4.6031091774   -3.0056806308    0.1825785514
H        4.4988627063   -1.2184200338   -3.1377162363
30   

C       -1.3953840295    0.5925440545    0.5638237009
C       -0.3302352620    1.1088880436    1.2999667316
C       -1.1811346752   -0.4974080106   -0.2763565318
C        5.9682367254    1.3169304943   -0.2931120536
C        0.9455428988    0.5403426082    1.1948234301
C        0.0938543712   -1.0624113892   -0.3772738564
C        5.5344094075    0.5144055657   -1.3435632739
C        5.3546231672    1.2007044737    0.9505768215
C        1.1951930337   -0.5529891977    0.3490428314
C        3.7675022691   -0.4052246380    0.0524995867
C        4.4685576677   -0.3724481086   -1.1760302046
C        4.2765556483    0.3322964905    1.1412332555
C        2.5225424563   -1.2307163947    0.1990942365
C        4.0686035838   -2.6046111369   -1.9747993942
C        3.7524361442   -3.1510448582   -0.5747127898
N        2.5242452305   -2.5254250213   -0.0369213510
N        4.1827791061   -1.2533610595   -2.2201466192
O        4.2368899717   -3.3552798980   -2.9230889319
F        3.7789201609    0.1807464344    2.3896761568
H       -2.3825247905    1.0335999818    0.6451176969
H       -0.4908707768    1.9559769562    1.9572008265
H       -2.0019191102   -0.9105717175   -0.8516898771
H        6.8004193441    1.9989146024   -0.4337456918
H        1.7216074614    0.9975603871    1.7868067747
H        0.2275002017   -1.9128751720   -1.0378661854
H        6.0538989001    0.5616286455   -2.2937170759
H        5.7191490261    1.7804811575    1.7901745670
H        3.6042133439   -4.2317049451   -0.6524563716
H        4.6038622727   -2.9790512999    0.0899754328
H        4.5168878849   -1.0619794876   -3.1558356068
30   

C       -1.4013460101    0.6020698412    0.6177994183
C       -0.2712514664    1.2484955742    1.1151512945
C       -1.2580971249   -0.6192116296   -0.0359370175
C        5.9829392718    1.3016239556   -0.1745743514
C        0.9979020472    0.6771238559    0.9595581623
C        0.0105147101   -1.1873411092   -0.1882292165
C        5.5796049232    0.5336740344   -1.2628597466
C        5.3173629088    1.1646531234    1.0401716111
C        1.1767213221   -0.5509647835    0.3009932529
C        3.7504551548   -0.3999427001    0.0392127777
C        4.4971496869   -0.3432091087   -1.1608125168
C        4.2208435930    0.3077772325    1.1644245928
C        2.5016625607   -1.2251632483    0.1332735185
C        4.1046176348   -2.5465404479   -2.0356938592
C        3.7521176950   -3.1282378638   -0.6588439845
N        2.5127350736   -2.5148090762   -0.1321465655
N        4.2388703128   -1.1905114739   -2.2388224802
O        4.2928099388   -3.2722649771   -2.9995574562
F        3.6488381421    0.1502398290    2.3812430546
H       -2.3835153989    1.0454657478    0.7375041317
H       -0.3756424577    2.2009419742    1.6223543433
H       -2.1295588532   -1.1324432765   -0.4265157330
H        6.8291171087    1.9749401728   -0.2643956662
H        1.8282618975    1.2454604049    1.3499595331
H        0.0807261514   -2.1413339053   -0.7002585113
H        6.1360170372    0.5992846866   -2.1907744925
H        5.6523778834    1.7211213972    1.9074274949
H        3.6040526897   -4.2060787073   -0.7690383896
H        4.5876413010   -2.9766135664    0.0304971181
H        4.6018507984   -0.9749335050   -3.1583576257
30   

C       -1.3883054389    0.6303816110    0.6684343318
C       -0.2218460347    1.3520084652    0.9164630404
C       -1.2969222041   -0.6830132300    0.2135500832
C        5.9871166093    1.2652443126   -0.0644504839
C        1.0321794345    0.7632588111    0.7118254896
C       -0.0433015765   -1.2687769692    0.0110985459
C        5.6288853754    0.5164343826   -1.1815423837
C        5.2559187413    1.1277190402    1.1116156606
C        1.1572832009   -0.5583686788    0.2527167738
C        3.7284524726   -0.4144806634    0.0166424526
C        4.5319507784   -0.3479801191   -1.1462783423
C        4.1434907817    0.2849391062    1.1693195434
C        2.4754256581   -1.2336682763    0.0526186938
C        4.1432380714   -2.5223290773   -2.0948393531
C        3.7323961262   -3.1320833207   -0.7477993239
N        2.4839596330   -2.5162821151   -0.2460086938
N        4.3106682441   -1.1650822797   -2.2551505758
O        4.3575591446   -3.2261346902   -3.0694412488
F        3.4859946092    0.1475787010    2.3448119017
H       -2.3589214580    1.0871243692    0.8261506991
H       -0.2865278913    2.3762978766    1.2656485907
H       -2.1972695099   -1.2541271327    0.0171048252
H        6.8452123976    1.9283057293   -0.1030099537
H        1.8928856200    1.3894690789    0.8988861749
H       -0.0149179690   -2.2950594863   -0.3395322220
H        6.2308091586    0.5885056760   -2.0801229141
H        5.5480805490    1.6759654457    1.9994096254
H        3.5745251936   -4.2046226060   -0.8910529937
H        4.5450275236   -3.0100410451   -0.0260194641
H        4.7143405149   -0.9317747003   -3.1531534905
30   

C       -1.3666754582    0.6558655661    0.7264520813
C       -0.1966050854    1.4144007222    0.7282205204
C       -1.2970179263   -0.7120772089    0.4692624568
C        5.9774101820    1.2272844529    0.0311076554
C        1.0397534285    0.8075293991    0.4757963760
C       -0.0606965277   -1.3159278770    0.2182129299
C        5.6694266686    0.4891364800   -1.1077299538
C        5.1817347078    1.0958375108    1.1648333304
C        1.1405478513   -0.5688355882    0.2159807932
C        3.7055330177   -0.4373717280   -0.0122069439
C        4.5638132910   -0.3647567045   -1.1360101116
C        4.0597434443    0.2642999342    1.1603424969
C        2.4475223083   -1.2448981690   -0.0352086912
C        4.1704815139   -2.5062135273   -2.1634553972
C        3.6947346887   -3.1441375146   -0.8530102686
N        2.4432282881   -2.5174969272   -0.3735288427
N        4.3811216074   -1.1509839558   -2.2739575994
O        4.4066298444   -3.1859349119   -3.1500155681
F        3.3293372103    0.1457698958    2.2938345685
H       -2.3240178778    1.1262213976    0.9209568890
H       -0.2455320093    2.4800116902    0.9214090932
H       -2.2007815693   -1.3108617778    0.4642286201
H        6.8428556902    1.8817962580    0.0410450093
H        1.9088944355    1.4523310769    0.4651589957
H       -0.0443421384   -2.3835744207    0.0261719017
H        6.3155496444    0.5642406665   -1.9748277461
H        5.4284341792    1.6419974742    2.0676125015
H        3.5193111602   -4.2080823685   -1.0347826483
H        4.4830554249   -3.0626967541   -0.0992970625
H        4.8270608023   -0.9016412265   -3.1473337256
30   

C       -1.3429743367    0.6747019704    0.7788439154
C       -0.2022164559    1.4436071502    0.5455430773
C       -1.2602965341   -0.7161632302    0.7161044679
C        5.9605389622    1.1976761351    0.1148703635
C        1.0184729035    0.8235883441    0.2530448900
C       -0.0392795308   -1.3331217205    0.4242619839
C        5.6995578822    0.4684048856   -1.0410559758
C        5.1088830824    1.0719600393    1.2073481849
C        1.1291328790   -0.5746078033    0.1911146548
C        3.6845206585   -0.4559019296   -0.0397823521
C        4.5897519435   -0.3764184773   -1.1268093909
C        3.9819067008    0.2497284617    1.1470054854
C        2.4217998663   -1.2480046602   -0.1205837588
C        4.1846864247   -2.4796944229   -2.2377649657
C        3.6486950194   -3.1475974870   -0.9678256388
N        2.3993834866   -2.5080184105   -0.5008541708
N        4.4420520907   -1.1299933076   -2.2919320010
O        4.4346835241   -3.1314684185   -3.2396224024
F        3.1942199729    0.1433539690    2.2425923177
H       -2.2887789025    1.1545951949    1.0040253106
H       -0.2627907775    2.5252037864    0.5864823153
H       -2.1421461890   -1.3215648634    0.8925829895
H        6.8297525245    1.8450097472    0.1687057619
H        1.8735546963    1.4601679346    0.0585674397
H       -0.0039650389   -2.4166992738    0.3822248725
H        6.3835519005    0.5470978035   -1.8782782561
H        5.3141758914    1.6162897963    2.1215320449
H        3.4527898438   -4.1996631471   -1.1927587892
H        4.4146463830   -3.1136046202   -0.1879219135
H        4.9254154989   -0.8643403422   -3.1402509974
30   

C       -1.3258188146    0.6897533153    0.8275281131
C       -0.2425820855    1.4405038649    0.3661334730
C       -1.1988096605   -0.6934571250    0.9663571213
C        5.9463826776    1.1518969461    0.2131721684
C        0.9659650511    0.8097103227    0.0480803237
C        0.0102745142   -1.3213091289    0.6483072636
C        5.7239193343    0.4295148544   -0.9547458488
C        5.0471694587    1.0369086887    1.2675363519
C        1.1181926578   -0.5779453543    0.1932471059
C        3.6627337429   -0.4808333631   -0.0367872791
C        4.6087213715   -0.4018729665   -1.0896223087
C        3.9141332698    0.2282139351    1.1594328283
C        2.3944551000   -1.2527502402   -0.1713677642
C        4.1865382834   -2.4686313644   -2.2722606568
C        3.5941555396   -3.1580666738   -1.0407632812
N        2.3504091178   -2.5011039253   -0.5840934219
N        4.4905332320   -1.1281932306   -2.2756282992
O        4.4459791766   -3.0965847558   -3.2868099371
F        3.0802259544    0.1367987648    2.2216381097
H       -2.2627948575    1.1773229939    1.0722369562
H       -0.3394756146    2.5139143118    0.2496304881
H       -2.0374976361   -1.2837456271    1.3176781177
H        6.8199858103    1.7889926106    0.3046700468
H        1.7851464155    1.4159629668   -0.3224205194
H        0.0888487889   -2.3980525236    0.7563076152
H        6.4404175640    0.5064741684   -1.7644828632
H        5.2187320451    1.5799379536    2.1894052258
H        3.3764598864   -4.1967904277   -1.3044029250
H        4.3385516155   -3.1703026183   -0.2396773435
H        5.0080328076   -0.8527294138   -3.1003818705
30   

C       -1.3046329606    0.6989603040    0.8457332522
C       -0.3092787828    1.4099367629    0.1702007732
C       -1.0972394362   -0.6433393946    1.1725697822
C        5.9614732596    1.1062704792    0.2981798234
C        0.8932033564    0.7807096556   -0.1727417035
C        0.1057531570   -1.2697546953    0.8289734516
C        5.7649611141    0.4110741965   -0.8903529943
C        5.0254037394    0.9884173066    1.3191245692
C        1.1242359914   -0.5607883036    0.1655193635
C        3.6625071069   -0.4870004501   -0.0558214265
C        4.6411742141   -0.3982351158   -1.0784190368
C        3.8834516211    0.2011599460    1.1593806241
C        2.3878584588   -1.2329274708   -0.2481526963
C        4.2005237630   -2.4127235969   -2.3492410779
C        3.5593127391   -3.1334652121   -1.1618024545
N        2.3227951148   -2.4643635462   -0.7038324386
N        4.5443204113   -1.0836138499   -2.2907568545
O        4.4674124362   -3.0066833527   -3.3821259990
F        3.0153280654    0.1091608210    2.1937211510
H       -2.2372973172    1.1847197640    1.1097214390
H       -0.4707025901    2.4490640669   -0.0930932205
H       -1.8696281941   -1.2029321525    1.6878249784
H        6.8417093565    1.7268126738    0.4305446243
H        1.6502888407    1.3434265695   -0.7081068040
H        0.2526272051   -2.3160370159    1.0754767792
H        6.5073314253    0.4943561656   -1.6757739811
H        5.1741372879    1.5130830823    2.2554634785
H        3.3211012465   -4.1544524185   -1.4728009147
H        4.2840106061   -3.1986718367   -0.3453998520
H        5.0913878607   -0.7917864646   -3.0904439686
30   

C       -1.3150898447    0.7057049119    0.8560805548
C       -0.4309264052    1.3345404261   -0.0254430424
C       -0.9981886181   -0.5512241687    1.3786947392
C        5.9757530785    1.0336770074    0.4057142545
C        0.7711076543    0.7097294566   -0.3780236384
C        0.2041417678   -1.1732931054    1.0246651336
C        5.7914925756    0.3727484805   -0.8038405031
C        5.0139894512    0.9117913488    1.4016350350
C        1.1110176950   -0.5398070123    0.1575497092
C        3.6531758908   -0.5034982204   -0.0379993061
C        4.6554690923   -0.4071122534   -1.0374665523
C        3.8597384819    0.1531815148    1.1975257015
C        2.3687059663   -1.2163693691   -0.2797109710
C        4.1913362139   -2.3670105449   -2.3868405779
C        3.5085567285   -3.1124900283   -1.2390891503
N        2.2813702371   -2.4288238453   -0.7781079379
N        4.5695795186   -1.0511122155   -2.2733180001
O        4.4619408266   -2.9298617984   -3.4360289586
F        2.9683922471    0.0574814096    2.2113549657
H       -2.2476219778    1.1875026351    1.1276757618
H       -0.6791135547    2.3045664568   -0.4409377968
H       -1.6858782416   -1.0485631361    2.0531667650
H        6.8652584148    1.6321444508    0.5730249689
H        1.4443047266    1.2003684133   -1.0726897237
H        0.4385340247   -2.1561966885    1.4191453791
H        6.5523257445    0.4611703011   -1.5707950155
H        5.1515770987    1.4115511330    2.3531568774
H        3.2499379785   -4.1147918870   -1.5918131966
H        4.2156960088   -3.2267628552   -0.4127724603
H        5.1405718349   -0.7461991129   -3.0511085939
30   

C       -1.3380820825    0.7475585243    0.8333240446
C       -0.5734163182    1.2320260793   -0.2323596339
C       -0.9009376303   -0.3694989305    1.5512486685
C        5.9911151783    0.9683624221    0.5318685939
C        0.6306379848    0.6048018914   -0.5737384607
C        0.3028270850   -0.9947172426    1.2075533272
C        5.8052675608    0.3605435615   -0.7046401792
C        5.0193895038    0.8227411141    1.5144656759
C        1.0910485077   -0.4983622295    0.1556522339
C        3.6456737061   -0.5101658929    0.0090855299
C        4.6580371207   -0.3892652462   -0.9783584449
C        3.8538601691    0.0933528743    1.2712674642
C        2.3503728990   -1.1873814446   -0.2767086218
C        4.1722138053   -2.2801345365   -2.4165335990
C        3.4607073387   -3.0606910393   -1.3106843716
N        2.2426275091   -2.3703710573   -0.8363036135
N        4.5718734686   -0.9774289126   -2.2418927385
O        4.4438304093   -2.8014244247   -3.4867232701
F        2.9551130030   -0.0262797228    2.2750695038
H       -2.2719679599    1.2312066550    1.0968672575
H       -0.9163326088    2.0903117931   -0.7988959104
H       -1.4968250896   -0.7565938039    2.3699244879
H        6.8889471983    1.5446273077    0.7297759197
H        1.2109308576    0.9777419776   -1.4107739331
H        0.6309903448   -1.8717470929    1.7547293945
H        6.5732257959    0.4678737366   -1.4620049325
H        5.1576407703    1.2816588487    2.4862325157
H        3.1853939223   -4.0408201053   -1.7100141443
H        4.1547975263   -3.2255442417   -0.4818722581
H        5.1561357776   -0.6493651159   -3.0001607065
30   

C       -1.3592837872    0.7318281157    0.7412166522
C       -0.7068330565    0.9998997201   -0.4659975069
C       -0.8052419059   -0.1813208445    1.6432703273
C        6.0146301879    0.8814941440    0.6285562032
C        0.5047877718    0.3655113329   -0.7641132626
C        0.4053321260   -0.8158824613    1.3427803922
C        5.8049790921    0.3500780910   -0.6381855771
C        5.0630962629    0.6724413384    1.6186493106
C        1.0873620597   -0.5235980986    0.1491803092
C        3.6572194063   -0.5665734835    0.0614889492
C        4.6532724146   -0.3838355784   -0.9346528801
C        3.8929819637   -0.0423779297    1.3542806842
C        2.3549684202   -1.2225114471   -0.2563019269
C        4.1617313992   -2.1933387501   -2.4691870372
C        3.4562562726   -3.0332228977   -1.4038329659
N        2.2406256795   -2.3635777032   -0.8955477502
N        4.5483755809   -0.8970925155   -2.2291687024
O        4.4305495117   -2.6553703122   -3.5669669650
F        3.0214639207   -0.2253688145    2.3700711060
H       -2.2983180405    1.2220973096    0.9722643768
H       -1.1425821681    1.6946754083   -1.1749746341
H       -1.3169174401   -0.4050071070    2.5724220790
H        6.9154446662    1.4468000299    0.8437504493
H        0.9968043426    0.5658101864   -1.7098795480
H        0.8150293833   -1.5431783485    2.0349200585
H        6.5579894437    0.5049072414   -1.4023098867
H        5.2211190059    1.0701164941    2.6141006844
H        3.1785341341   -3.9905470140   -1.8536065793
H        4.1523899668   -3.2406759433   -0.5863816180
H        5.1221316011   -0.5236833516   -2.9743605757
30   

C       -1.3743743620    0.7201762156    0.6212146011
C       -0.8269817622    0.7176001154   -0.6641960637
C       -0.7135103387    0.0563803256    1.6581146966
C        6.0545229878    0.7935954701    0.6739234033
C        0.3906604434    0.0718642845   -0.9058593123
C        0.5029540505   -0.5923684012    1.4155291295
C        5.7823689497    0.3795631555   -0.6233673612
C        5.1635824299    0.4708193838    1.6887207862
C        1.0926369648   -0.5527874913    0.1381022851
C        3.6785600564   -0.6269425460    0.0971031487
C        4.6244266062   -0.3417357014   -0.9250507387
C        3.9881746844   -0.2346692906    1.4209643261
C        2.3643464633   -1.2594825517   -0.2413071938
C        4.1225817963   -2.0491007443   -2.5602320535
C        3.4617457738   -2.9719545503   -1.5345142594
N        2.2481124235   -2.3499954244   -0.9647122931
N        4.4683866552   -0.7556921381   -2.2495937635
O        4.3757727581   -2.4333235111   -3.6912322093
F        3.1949680477   -0.5433517847    2.4662303150
H       -2.3176096696    1.2205393121    0.8096398314
H       -1.3480044575    1.2110334888   -1.4768034088
H       -1.1510051412    0.0305478740    2.6496698765
H        6.9594266689    1.3505793257    0.8936423706
H        0.7993196278    0.0621569533   -1.9109261995
H        0.9566986928   -1.1507900362    2.2236202919
H        6.4926844561    0.6136665333   -1.4079358971
H        5.3757253870    0.7686152003    2.7087011141
H        3.1883092687   -3.9033557834   -2.0380897980
H        4.1799662526   -3.2167811620   -0.7470061395
H        5.0059826173   -0.3170756138   -2.9861488331
30   

C       -1.3457799326    0.7960249774    0.5082822643
C       -0.9576197063    0.4088690857   -0.7749736757
C       -0.5347625077    0.4817739033    1.6001697628
C        6.0158710255    0.6980364610    0.7981090129
C        0.2400330362   -0.2886128289   -0.9646328797
C        0.6642560248   -0.2163798505    1.4124874458
C        5.6760261798    0.4816798265   -0.5326810395
C        5.2211507942    0.1509174539    1.7997065741
C        1.0719711900   -0.6146682061    0.1226275039
C        3.6612515128   -0.7072596182    0.1432063242
C        4.5313102357   -0.2423404660   -0.8736555183
C        4.0626629504   -0.5657535047    1.4884966808
C        2.3452140741   -1.3322541737   -0.2156694625
C        4.0592068459   -1.8165792853   -2.6328584616
C        3.4896708964   -2.8690340044   -1.6722101908
N        2.2593781082   -2.3676770275   -1.0221634928
N        4.3262704060   -0.5284181407   -2.2246201696
O        4.2973457180   -2.0874788432   -3.7994218513
F        3.3865046974   -1.1568020296    2.4964912423
H       -2.2742329525    1.3360168545    0.6565539300
H       -1.5839601309    0.6481059626   -1.6269077738
H       -0.8365081318    0.7767871297    2.5988116238
H        6.9096385772    1.2591366287    1.0505428919
H        0.5238715628   -0.5773506970   -1.9715474208
H        1.2383363635   -0.4437213926    2.2957671789
H        6.3271464805    0.8617148666   -1.3114480624
H        5.5031922570    0.2697109206    2.8390676737
H        3.2544783596   -3.7687525506   -2.2475900085
H        4.2452997450   -3.1369885025   -0.9282465606
H        4.8088416059    0.0044114691   -2.9366848861
30   

C       -1.3582636714    0.8061164359    0.4889509647
C       -1.1130410823    0.1681754995   -0.7270749568
C       -0.3953808780    0.7619085337    1.4977192945
C        6.0116308529    0.6151561492    0.9010926306
C        0.0869787650   -0.5221218164   -0.9290982367
C        0.8067839222    0.0733051644    1.2972191073
C        5.6853278930    0.4838867006   -0.4452278845
C        5.1986966231    0.0181835450    1.8602519813
C        1.0590044750   -0.6080423121    0.0866607032
C        3.6489236996   -0.7110058632    0.1371393470
C        4.5360644666   -0.2040318935   -0.8410707891
C        4.0347398297   -0.6617201102    1.4921734525
C        2.3335954269   -1.3137094197   -0.2598973565
C        4.0788837627   -1.6964600820   -2.6696955445
C        3.5100353891   -2.7916064198   -1.7552702365
N        2.2687959025   -2.3284542568   -1.0962623917
N        4.3453789219   -0.4267303186   -2.2054296198
O        4.3231340128   -1.9182640909   -3.8453711622
F        3.3257696793   -1.3032872652    2.4492230632
H       -2.2887004712    1.3401945640    0.6459913300
H       -1.8517304455    0.2089190729   -1.5195660451
H       -0.5766420203    1.2685196469    2.4389156605
H        6.9099259325    1.1473681451    1.1964308447
H        0.2499312713   -0.9957029925   -1.8917539412
H        1.5206117010    0.0984949662    2.1053096432
H        6.3515826889    0.8982367166   -1.1930964706
H        5.4705164697    0.0688492854    2.9078688881
H        3.2886322170   -3.6700760667   -2.3677357609
H        4.2616288015   -3.0826250168   -1.0158936105
H        4.8346399881    0.1363932692   -2.8890247653
30   

C       -1.3836888361    0.7697880411    0.5317955304
C       -1.2454929600   -0.0564411297   -0.5830949174
C       -0.3050224972    0.9429276502    1.3986905994
C        6.0134945401    0.5398609712    0.9952449079
C       -0.0368606442   -0.7195874896   -0.8227335962
C        0.9053281878    0.2819213197    1.1601751013
C        5.7267372639    0.4464563624   -0.3634648120
C        5.1503681443   -0.0470416134    1.9160712266
C        1.0542852004   -0.5929591113    0.0599327243
C        3.6412978568   -0.7031096428    0.1279889030
C        4.5717431555   -0.1993474628   -0.8108607694
C        3.9791767667   -0.6827706845    1.4966308384
C        2.3300522376   -1.2797451729   -0.3125517803
C        4.1329486579   -1.6317040736   -2.6897797718
C        3.5281955651   -2.7392131286   -1.8149844716
N        2.2782586316   -2.2775961302   -1.1711259834
N        4.4159192129   -0.3817325806   -2.1851771632
O        4.3999351942   -1.8282509801   -3.8650282336
F        3.1996962618   -1.2942474869    2.4193033800
H       -2.3206155474    1.2830881887    0.7170010787
H       -2.0748843478   -0.1831909184   -1.2696913329
H       -0.4016992474    1.5997383202    2.2557777847
H        6.9172611038    1.0383865209    1.3300829527
H        0.0303901477   -1.3401562341   -1.7101258770
H        1.7139514014    0.4878486869    1.8457438375
H        6.4280985527    0.8571436747   -1.0806465901
H        5.3855248378   -0.0197309755    2.9734259673
H        3.3098963057   -3.5997843213   -2.4533957886
H        4.2591535352   -3.0581065658   -1.0665096999
H        4.9336741593    0.1893220465   -2.8406271951
30   

C       -1.3959364482    0.7308933438    0.5957828491
C       -1.3379368592   -0.2479746159   -0.3956908376
C       -0.2357910657    1.0821017302    1.2850093183
C        6.0054970938    0.4600394897    1.0702670706
C       -0.1262386659   -0.8839998042   -0.6885068288
C        0.9769444715    0.4480015958    0.9929684509
C        5.7684874437    0.3927556486   -0.2994978005
C        5.0854193474   -0.1021572586    1.9499716299
C        1.0523946150   -0.5748946119    0.0188859514
C        3.6319643123   -0.6998571357    0.0949870440
C        4.6115399113   -0.2088961768   -0.8008861416
C        3.9111388639   -0.6928471491    1.4777068226
C        2.3251406760   -1.2411842249   -0.3933222778
C        4.1878535566   -1.5711520861   -2.7363981129
C        3.5281727507   -2.6843158192   -1.9122794465
N        2.2747767767   -2.2100987220   -1.2848718148
N        4.4983252108   -0.3492008996   -2.1841569397
O        4.4826538447   -1.7406888412   -3.9092064690
F        3.0601349753   -1.2593828648    2.3651798964
H       -2.3351179077    1.2235349344    0.8212588852
H       -2.2331121316   -0.5152919022   -0.9457389565
H       -0.2715527254    1.8564977377    2.0428674623
H        6.9114562587    0.9241377292    1.4461836422
H       -0.1286518718   -1.6295122930   -1.4765720680
H        1.8500128032    0.7906411992    1.5311087172
H        6.5092234702    0.7914668755   -0.9830850761
H        5.2753325001   -0.0871795254    3.0166627240
H        3.3037916074   -3.5189365133   -2.5822436816
H        4.2300725379   -3.0461126647   -1.1555830985
H        5.0534782470    0.2243294156   -2.8059789686
30   

C       -1.3921573487    0.6951801207    0.6659555495
C       -1.3800389682   -0.4103956029   -0.1848335639
C       -0.1886338611    1.1980902649    1.1601927290
C        5.9903134270    0.3835188121    1.1511296976
C       -0.1686602618   -1.0188420997   -0.5330618207
C        1.0232108346    0.5912566676    0.8125741254
C        5.8114165389    0.3296506516   -0.2278511946
C        5.0107867651   -0.1430158741    1.9869928233
C        1.0564389666   -0.5485410046   -0.0233314457
C        3.6261316705   -0.6973844874    0.0657491627
C        4.6576979357   -0.2288468704   -0.7841514403
C        3.8387605418   -0.6908230062    1.4612232655
C        2.3243245580   -1.1945799769   -0.4736934371
C        4.2491095763   -1.5203842389   -2.7753721578
C        3.5208104961   -2.6291596539   -2.0080181700
N        2.2680658930   -2.1301732355   -1.3995551477
N        4.5946624109   -0.3326048462   -2.1739696503
O        4.5751473811   -1.6660661170   -3.9430941230
F        2.9232363197   -1.2123933293    2.3109449129
H       -2.3312225297    1.1664038673    0.9336930456
H       -2.3112602037   -0.7984568889   -0.5817554192
H       -0.1914829893    2.0672494303    1.8081355960
H        6.8944342726    0.8142449516    1.5688754425
H       -0.2046645730   -1.8703425626   -1.2042860275
H        1.9330444850    1.0388722722    1.1922653977
H        6.5936629862    0.7086274723   -0.8754940223
H        5.1504507541   -0.1317697146    3.0614840607
H        3.2853992012   -3.4329432839   -2.7110923193
H        4.1854343554   -3.0419860164   -1.2438547343
H        5.1931398632    0.2355585900   -2.7594827096
