39

C      3.62383   -0.47522    3.26292
C      3.61344    0.45264    2.25220
C      5.73821   -0.74602    2.59583
C      0.21530    1.30494    0.79853
C      1.77333   -0.29065    0.02418
C     -0.39593    0.58474   -0.42705
C      0.41067   -0.73165   -0.53802
C      7.14792   -1.25745    2.56856
C     -1.91635    0.44726   -0.38728
C     -0.17628   -1.89284    0.26646
C      1.91861   -2.25232    3.79802
C      2.45255   -0.84832    4.12792
C      2.46978    1.30430    1.77152
N      4.82727   -1.13969    3.44234
N      1.39678    0.50981    1.18681
O      0.47940   -1.07472   -1.93041
S      5.18043    0.49304    1.48377
H      0.48898    2.33964    0.53405
H     -0.48689    1.36016    1.64022
H      2.41456   -1.12703    0.32065
H      2.30414    0.29300   -0.75100
H     -0.12860    1.14680   -1.32828
H      7.44955   -1.55714    1.55998
H      7.85277   -0.49313    2.91418
H      7.21976   -2.12131    3.23241
H     -2.25261   -0.06918    0.51787
H     -2.27962   -0.10841   -1.25763
H     -2.39157    1.43444   -0.39942
H     -1.15837   -2.17672   -0.12087
H     -0.27303   -1.62834    1.32238
H      0.48196   -2.76871    0.20433
H      1.56504   -2.29164    2.76393
H      1.08349   -2.51614    4.45611
H      2.70575   -3.00188    3.92233
H      2.76914   -0.81467    5.17700
H      1.65386   -0.11359    3.99695
H      2.05127    1.85943    2.61986
H      2.84653    2.06260    1.05865
H      0.88208   -1.95476   -2.00275
