19

C     -0.14360   -1.26397   -1.24247
C      2.06680   -0.20524   -1.19080
C      1.38704   -1.42612   -3.17128
C      0.83360   -0.51067   -0.60225
C      0.15400   -1.71191   -2.52979
C      2.34075   -0.66294   -2.47535
C      0.46537   -2.60580   -4.79291
C      0.02454    1.12691    0.88774
N      1.52621   -1.94693   -4.44598
O      0.60421   -0.09128    0.72261
F     -1.19963    1.20056    0.31485
F      0.76395    2.13007    0.36259
F     -0.10865    1.33930    2.20052
S     -0.84855   -2.67446   -3.59807
S      0.24789   -3.41798   -6.33783
Br     4.01507   -0.25358   -3.28596
H     -1.08231   -1.48261   -0.74549
H      2.79307    0.38038   -0.63918
H      1.46422   -3.05742   -6.79593
