32

C      7.92240   -3.34862    4.49766
C      0.86636   -0.15054    2.03136
C      0.44449   -0.72709    0.82980
C      2.03691   -0.60606    2.63328
C      1.19274   -1.75468    0.25201
C      9.26315   -3.74734   -0.11655
C      9.03852   -3.62003   -1.45526
C      7.07002   -2.93012   -0.09759
C      2.79823   -1.63333    2.04653
C      8.13106   -3.35256    0.69474
C      2.37522   -2.23039    0.83774
C      4.02193   -2.05608    2.75092
C      6.00030   -2.69166    3.13994
C      8.23163   -3.42336    2.13308
C      7.38252   -3.15155    3.17642
C      3.12123   -3.35989    0.16387
N      8.38997   -3.51891    5.55128
N      5.18967   -2.46955    2.13446
N      4.10293   -2.03059    4.06802
O      5.41438   -2.44535    4.33361
S      7.43937   -3.01121   -1.76919
H      0.29151    0.64728    2.49323
H     -0.46609   -0.38281    0.34630
H      2.38145   -0.16622    3.56397
H      0.84897   -2.20884   -0.67437
H     10.19826   -4.10897    0.29964
H      9.70888   -3.84385   -2.27491
H      6.10752   -2.58567    0.24998
H      9.20916   -3.76625    2.46525
H      3.96906   -2.98317   -0.41727
H      3.52249   -4.07941    0.88058
H      2.45928   -3.89189   -0.52455
