33

C      2.62383    4.26365   -0.10052
C      2.47624    3.77055    1.16972
C      1.40505    2.47793   -0.60050
C      0.03658    0.46377   -1.02327
C     -1.22551   -1.64252   -1.66590
C     -1.72632    0.52455   -2.86734
C     -2.52552   -1.44891   -0.87774
C     -2.97537    0.65765   -1.99330
C     -0.63191   -0.31165   -2.16015
C      3.36709    5.50070   -0.51689
C      2.99049    4.29394    2.47933
N      2.00879    3.51930   -1.10046
N     -3.48908   -0.68023   -1.68235
N      0.72120    1.59223   -1.42741
O      0.00295    0.13536    0.15986
S      1.52041    2.29324    1.13304
H     -0.49631   -2.16994   -1.04499
H     -1.43678   -2.26329   -2.54382
H     -2.00461    0.00931   -3.79301
H     -1.35784    1.51857   -3.14443
H     -2.96415   -2.42863   -0.66030
H     -2.29494   -0.96136    0.08132
H     -2.72782    1.24054   -1.08631
H     -3.74615    1.21211   -2.53895
H      0.15978   -0.52753   -2.89060
H      4.16697    5.24569   -1.22035
H      2.69308    6.19574   -1.02903
H      3.81192    6.01913    0.33463
H      2.17332    4.52113    3.17343
H      3.65069    3.57151    2.97270
H      3.56079    5.21313    2.32812
H     -4.36087   -0.59295   -1.16490
H      0.75521    1.84352   -2.40897
