25

C     -2.96201    0.72889   -4.81195
C     -4.11779    0.33284   -5.49998
C     -3.45746   -1.99529   -5.25772
C     -2.04558   -0.21839   -4.34188
C     -4.34399   -1.01845   -5.71033
C     -2.32285   -1.57673   -4.58037
C      2.92337    1.88158   -2.94385
C      2.28433    3.16065   -2.38737
C      0.73190    1.46383   -2.66656
C     -0.58766    1.42227   -3.41351
O      1.81132    1.20984   -3.54021
O      0.91872    2.78115   -2.14356
O     -0.89506    0.05428   -3.66385
F     -5.45995   -1.41521   -6.37611
F     -1.44901   -2.50258   -4.12925
H     -2.78717    1.78578   -4.64910
H     -4.82981    1.06514   -5.86619
H     -3.64264   -3.05071   -5.42632
H      3.67186    2.05735   -3.71814
H      3.35890    1.26662   -2.14402
H      2.74113    3.49479   -1.45099
H      2.30213    3.97933   -3.11521
H      0.73151    0.73674   -1.83896
H     -0.48657    1.98468   -4.34913
H     -1.35959    1.88581   -2.78736
