18   
Generated by ForceBalance from scan.xyz: Frame 1 of 24
C        1.2469229219   -0.4049239967   -3.1992365569
C        1.1085602341    0.1316675086   -1.9235605911
C       -0.5801424655   -1.5478577854   -1.3368411381
C        0.4699378256   -1.5157233533   -3.5597507339
C        0.2018082795   -0.4424842605   -1.0212659738
C       -0.4356692227   -2.0753396727   -2.6228897775
C       -0.3152035551   -3.1377683621   -4.8160024324
C       -0.8632956377    0.9758819868    0.5374638377
N        0.5078785941   -2.1509415079   -4.7979449499
O        0.1350596390    0.0912730469    0.2814940859
F       -0.5731604618    1.6057546546    1.6812947402
F       -2.0658947417    0.3666571705    0.6786070649
F       -1.0052833414    1.9024581924   -0.4357568809
S       -1.2533842524   -3.4457415866   -3.3486341092
Br      -0.5710494107   -4.2625416110   -6.3158829778
H        1.9411001680    0.0181943171   -3.9182337231
H        1.6923990909    0.9901736605   -1.6084358622
H       -1.2603776440   -1.9666522256   -0.6030124900
18   
Generated by ForceBalance from scan.xyz: Frame 2 of 24
C        1.3516968934   -0.4613576916   -3.1895237036
C        1.1929265581    0.1022461353   -1.9277082275
C       -0.5821842262   -1.4973802793   -1.3728544270
C        0.5399287971   -1.5436421180   -3.5594723709
C        0.2343675878   -0.4196051130   -1.0482877623
C       -0.4197710523   -2.0497708349   -2.6460978614
C       -0.2718058869   -3.1510307865   -4.8178117415
C       -0.8986525619    0.9567616206    0.5194226751
N        0.5916221403   -2.1997586312   -4.7862602085
O        0.1551440970    0.1457195816    0.2383180000
F       -0.5062225400    1.8615631663    1.4262782689
F       -1.9411025123    0.2647464170    1.0389862171
F       -1.3603093073    1.6167050625   -0.5637747986
S       -1.2710451538   -3.3956948305   -3.3788983874
Br      -0.5250340256   -4.2886244384   -6.3084199469
H        2.0866648172   -0.0794568473   -3.8908826860
H        1.8008489745    0.9411017068   -1.6048102695
H       -1.3016104279   -1.8791717903   -0.6560064656
18   
Generated by ForceBalance from scan.xyz: Frame 3 of 24
C        1.3535791389   -0.4592579331   -3.1615643458
C        1.1734944960    0.0906837925   -1.8965341458
C       -0.5971409960   -1.5270965683   -1.3822072759
C        0.5563646537   -1.5450654083   -3.5522956989
C        0.2063710818   -0.4468211253   -1.0359267061
C       -0.4114500932   -2.0681875069   -2.6570545559
C       -0.2237234835   -3.1475958034   -4.8365981336
C       -0.8874349197    0.9984432154    0.5154654365
N        0.6309086694   -2.1893557999   -4.7841362455
O        0.0979484719    0.0966386212    0.2566411558
F       -0.3735461766    2.0251936854    1.2135057330
F       -1.8676215973    0.4425306799    1.2623425629
F       -1.4597416179    1.4950343053   -0.5995645156
S       -1.2406840415   -3.4144144458   -3.4140785189
Br      -0.4464768374   -4.2729574284   -6.3412189248
H        2.0952670656   -0.0653646574   -3.8490908319
H        1.7722873445    0.9297489868   -1.5572226413
H       -1.3241417738   -1.9187071384   -0.6780752896
18   
Generated by ForceBalance from scan.xyz: Frame 4 of 24
C        1.3120503334   -0.4584864989   -3.1348224019
C        1.0967953170    0.0727145397   -1.8674998708
C       -0.6302106797   -1.6038257992   -1.3958442413
C        0.5583148191   -1.5675705282   -3.5464016620
C        0.1327582694   -0.5025664297   -1.0270724002
C       -0.4044003443   -2.1307335506   -2.6704116290
C       -0.1463046450   -3.1853295367   -4.8549979671
C       -0.8702274807    1.0562452085    0.4829212945
N        0.6739687703   -2.1988239882   -4.7817263417
O       -0.0246022854    0.0105133817    0.2725797077
F       -0.1926591055    2.1042547930    0.9944206552
F       -1.8124929059    0.7097305361    1.3830950656
F       -1.4962247948    1.4716962502   -0.6342357216
S       -1.1750334115   -3.4984643748   -3.4504496849
Br      -0.3075658429   -4.3045713725   -6.3719864609
H        2.0511385934   -0.0349186492   -3.8073330568
H        1.6669578006    0.9252065209   -1.5123529721
H       -1.3569592570   -2.0207880329   -0.7062736714
18   
Generated by ForceBalance from scan.xyz: Frame 5 of 24
C        1.2847008838   -0.4626610016   -3.0936939876
C        1.0372433197    0.0529163876   -1.8259260270
C       -0.6626867854   -1.6634875849   -1.3980661973
C        0.5638633723   -1.5855883965   -3.5262525439
C        0.0693904244   -0.5492871230   -1.0080057877
C       -0.4001863967   -2.1773057146   -2.6710037675
C       -0.0823357713   -3.2077221959   -4.8593787907
C       -0.8540765382    1.0856338311    0.4626653091
N        0.7142113476   -2.2038216416   -4.7643988536
O       -0.1359550118   -0.0577549334    0.2935867170
F       -0.0439575692    2.1271791587    0.7601885632
F       -1.6906371961    0.9237553747    1.5030119079
F       -1.5820705231    1.4257926802   -0.6176276073
S       -1.1266509648   -3.5554895361   -3.4745511202
Br      -0.1939934783   -4.3170064023   -6.3881549667
H        2.0259051850   -0.0176790627   -3.7498602805
H        1.5850411534    0.9136364044   -1.4556027076
H       -1.3950408183   -2.0975313770   -0.7253033420
18   
Generated by ForceBalance from scan.xyz: Frame 6 of 24
C        1.2759780465   -0.4525668498   -3.0731548661
C        1.0114110364    0.0466174086   -1.8019563991
C       -0.6984432171   -1.6714323309   -1.4240787077
C        0.5611399840   -1.5686860704   -3.5316734754
C        0.0294594900   -0.5641867312   -1.0071254224
C       -0.4165068504   -2.1699255370   -2.6987377065
C       -0.0662093033   -3.1727919630   -4.8951523412
C       -0.8422357795    1.0958475875    0.4476788471
N        0.7298571536   -2.1712667890   -4.7751962181
O       -0.2036353848   -0.0951906924    0.2997396432
F        0.0301484255    2.1331527521    0.4861221538
F       -1.4921049032    1.0781093310    1.6208231496
F       -1.7295837872    1.3492738713   -0.5332008249
S       -1.1322859537   -3.5366365365   -3.5310163169
Br      -0.1552098314   -4.2627228489   -6.4392972832
H        2.0279756588   -0.0000339837   -3.7116293272
H        1.5564112913    0.9007240623   -1.4137142681
H       -1.4433086824   -2.1111059682   -0.7690401439
18   
Generated by ForceBalance from scan.xyz: Frame 7 of 24
C        1.3474425114   -0.5172785028   -3.0102026208
C        1.0613842845   -0.0090566104   -1.7469985525
C       -0.7269925121   -1.6580813169   -1.4283343968
C        0.6007174758   -1.6006996543   -3.4952435760
C        0.0320169177   -0.5816070687   -0.9851693871
C       -0.4281222274   -2.1621876886   -2.6964806819
C       -0.0509293068   -3.1727733836   -4.8844913085
C       -0.9947550157    1.0070107921    0.4293152728
N        0.7831299578   -2.2066075522   -4.7352552664
O       -0.2099003272   -0.0959760811    0.3156655425
F       -0.3451387805    2.1402526458    0.0685352479
F       -1.3466454861    1.1279168620    1.7152289879
F       -2.1155617920    0.9357878542   -0.3202910680
S       -1.1748658211   -3.4945838775   -3.5570819091
Br      -0.1369661421   -4.2534280507   -6.4352543921
H        2.1376694259   -0.0953296490   -3.6229134858
H        1.6241940495    0.8230371004   -1.3376007135
H       -1.5086443674   -2.0703930161   -0.7990581802
18   
Generated by ForceBalance from scan.xyz: Frame 8 of 24
C        1.4259461680   -0.5716230333   -2.9647003786
C        1.1320401510   -0.0453370596   -1.7110908873
C       -0.7364844128   -1.6098488442   -1.4294561938
C        0.6400613148   -1.6199769850   -3.4652758909
C        0.0608098987   -0.5672449615   -0.9714269091
C       -0.4332843067   -2.1291420138   -2.6906211791
C       -0.0520342284   -3.1641885663   -4.8661073715
C       -1.0586392370    0.9673995705    0.4258130471
N        0.8232514277   -2.2380958909   -4.6990983694
O       -0.1735618802   -0.0571058026    0.3219675484
F       -0.6829503381    2.0550469413   -0.2856723722
F       -1.1360317384    1.3100330525    1.7159548124
F       -2.2981911096    0.6293995995   -0.0019468369
S       -1.2216131427   -3.4277077424   -3.5658652577
Br      -0.1515745071   -4.2451332276   -6.4158561285
H        2.2491217646   -0.1888855020   -3.5595000310
H        1.7195822784    0.7635715811   -1.2899416782
H       -1.5490207947   -1.9873807925   -0.8181040013
18   
Generated by ForceBalance from scan.xyz: Frame 9 of 24
C        1.4817969956   -0.6143052754   -2.9270535679
C        1.1715099923   -0.0720514703   -1.6844890378
C       -0.7539424807   -1.5739692466   -1.4438723300
C        0.6745317352   -1.6387305364   -3.4432944499
C        0.0655178277   -0.5553298164   -0.9708890801
C       -0.4352058648   -2.1080033082   -2.6952857949
C       -0.0306999338   -3.1670779468   -4.8549889288
C       -1.1157173583    0.9560380451    0.4060109368
N        0.8697685202   -2.2691666930   -4.6690060420
O       -0.1795106076   -0.0232573874    0.3109708852
F       -0.9954842110    1.8946760202   -0.5573511825
F       -0.9851436162    1.5401120311    1.6013622527
F       -2.3777028802    0.4650836374    0.3129756352
S       -1.2421753363   -3.3849320001   -3.5850690117
Br      -0.1243797042   -4.2532173377   -6.4014604292
H        2.3317755395   -0.2611328154   -3.5021345560
H        1.7719214450    0.7211934307   -1.2514696054
H       -1.5925787929   -1.9240579381   -0.8516685712
18   
Generated by ForceBalance from scan.xyz: Frame 10 of 24
C        1.5443451349   -0.6743206889   -2.9050119912
C        1.2275373057   -0.1183014078   -1.6698642524
C       -0.7667309636   -1.5341395913   -1.4792434943
C        0.7050969088   -1.6601713914   -3.4443916084
C        0.0847704247   -0.5525316183   -0.9843307262
C       -0.4429433533   -2.0789619633   -2.7246526737
C       -0.0336927843   -3.1531621898   -4.8764935761
C       -1.1599205926    0.9067285226    0.4134820271
N        0.9017450458   -2.2974337779   -4.6664489582
O       -0.1588747578   -0.0038999604    0.2890831720
F       -1.3621318246    1.6297856617   -0.7067429668
F       -0.8603665107    1.7347943285    1.4210270286
F       -2.3423545921    0.3076104948    0.7091382759
S       -1.2849486021   -3.3166286640   -3.6369734912
Br      -0.1385459947   -4.2331840723   -6.4265766724
H        2.4234768494   -0.3591925891   -3.4579418893
H        1.8512779763    0.6472592333   -1.2199775995
H       -1.6334085715   -1.8506080488   -0.9084111626
18   
Generated by ForceBalance from scan.xyz: Frame 11 of 24
C        1.5304225515   -0.6564372474   -2.8880577104
C        1.2026357072   -0.1287804830   -1.6433245653
C       -0.7866934674   -1.5562482307   -1.4976630027
C        0.7001880619   -1.6353598747   -3.4533568669
C        0.0565634438   -0.5821026218   -0.9755835521
C       -0.4506449636   -2.0753392282   -2.7506811440
C       -0.0200538503   -3.1024444267   -4.9213596522
C       -1.1250289579    0.9234340796    0.4485861740
N        0.9090516625   -2.2462213032   -4.6867977347
O       -0.2061154364   -0.0698679484    0.3077047995
F       -1.4494831461    1.5198317565   -0.7150793302
F       -0.6465290008    1.8532413341    1.2903945426
F       -2.2723479094    0.4427263801    0.9839525922
S       -1.2792272462   -3.2982818540   -3.6945266388
Br      -0.1078963380   -4.1504757922   -6.4942402123
H        2.4120000322   -0.3259269777   -3.4279829938
H        1.8214054160    0.6283604017   -1.1726139984
H       -1.6563781977   -1.8865406646   -0.9388943349
18   
Generated by ForceBalance from scan.xyz: Frame 12 of 24
C        1.4893952312   -0.6146053240   -2.8908023346
C        1.1461694838   -0.1204550735   -1.6367481229
C       -0.8091894644   -1.5971773252   -1.5274556889
C        0.6867929251   -1.6044572449   -3.4769757616
C        0.0079420895   -0.6139217067   -0.9829155217
C       -0.4542475053   -2.0875276826   -2.7870703285
C        0.0105062114   -3.0627608561   -4.9743415096
C       -1.0435797274    0.9740626234    0.4625638500
N        0.9159567768   -2.1869114202   -4.7204151113
O       -0.2846388207   -0.1456059779    0.3101386909
F       -1.4368642855    1.5172267399   -0.7055410100
F       -0.3534303385    1.9098731158    1.1448964321
F       -2.1486068054    0.6872311524    1.1799676907
S       -1.2470305247   -3.3145644239   -3.7560470740
Br      -0.0447338719   -4.0824972755   -6.5671622688
H        2.3643563324   -0.2524109942   -3.4210730112
H        1.7478420712    0.6401027494   -1.1494222025
H       -1.6737369867   -1.9553991921   -0.9781108062
18   
Generated by ForceBalance from scan.xyz: Frame 13 of 24
C        1.4387362280   -0.6105252212   -2.8558952055
C        1.0579224614   -0.1330256202   -1.6065089277
C       -0.8547695802   -1.6674997784   -1.5407594474
C        0.6793359956   -1.6239977036   -3.4592768071
C       -0.0791182217   -0.6622518813   -0.9774171346
C       -0.4583023029   -2.1457796509   -2.7927682471
C        0.0782682946   -3.0979791942   -4.9733147528
C       -1.0163712506    1.0008918973    0.4544243140
N        0.9502309784   -2.1945317224   -4.6997644551
O       -0.4272030681   -0.2171558942    0.3103044291
F       -1.4861266901    1.5075398744   -0.7022447083
F       -0.1410874995    1.9016268130    0.9599770588
F       -2.0346798393    0.8984301276    1.3234056410
S       -1.1932583573   -3.3942378316   -3.7797142984
Br       0.0854129197   -4.1128870798   -6.5702012847
H        2.3121036862   -0.2195612418   -3.3680883279
H        1.6297601289    0.6422969500   -1.1066400730
H       -1.7207902307   -2.0491882216   -1.0100578303
18   
Generated by ForceBalance from scan.xyz: Frame 14 of 24
C        1.4513952160   -0.6184985057   -2.8244612980
C        1.0586962823   -0.1500351153   -1.5749360212
C       -0.8741096237   -1.6609105617   -1.5544528125
C        0.6890894421   -1.6156805335   -3.4502244037
C       -0.0940215341   -0.6719969139   -0.9686614778
C       -0.4645519891   -2.1299982645   -2.8054339557
C        0.0919347034   -3.0654597647   -4.9889450856
C       -1.0070831835    1.0009090796    0.4467171685
N        0.9710180776   -2.1762116359   -4.6929088401
O       -0.4602677880   -0.2370823875    0.3190437714
F       -1.7001281708    1.3892833726   -0.6430371946
F       -0.0567642400    1.9454775572    0.6626385774
F       -1.8248521734    0.9974058062    1.5062301825
S       -1.2004175401   -3.3582031058   -3.8169127162
Br       0.1096284137   -4.0632591039   -6.5965451551
H        2.3370762632   -0.2328022293   -3.3191938231
H        1.6328031084    0.6124028735   -1.0588075576
H       -1.7535457208   -2.0362130397   -1.0416568781
18   
Generated by ForceBalance from scan.xyz: Frame 15 of 24
C        1.5187842507   -0.6374251772   -2.8054414171
C        1.1340326770   -0.1787073645   -1.5495473047
C       -0.8713116479   -1.5915148191   -1.5855088453
C        0.7136319411   -1.5779914786   -3.4640114384
C       -0.0495198598   -0.6566468121   -0.9676511466
C       -0.4726374009   -2.0476289540   -2.8443525058
C        0.0600382528   -2.9559115212   -5.0453025525
C       -1.0404163973    0.9641652989    0.4367355408
N        0.9805815601   -2.1212706011   -4.7176880770
O       -0.3991080927   -0.2284456791    0.3287576090
F       -2.0315708768    1.1113701375   -0.4693184822
F       -0.1995643838    2.0144670401    0.2657894513
F       -1.5601712897    1.0446490989    1.6659992071
S       -1.2592493328   -3.2101059689   -3.8947703907
Br       0.0445347902   -3.9126972881   -6.6776424193
H        2.4288425666   -0.2857761227   -3.2809072480
H        1.7369797978    0.5427436272   -1.0085856334
H       -1.7740288448   -1.9355946635   -1.0918530790
18   
Generated by ForceBalance from scan.xyz: Frame 16 of 24
C        1.5894487745   -0.7047607279   -2.7650489346
C        1.2019029187   -0.2267441634   -1.5175199251
C       -0.8689865976   -1.5393688549   -1.5957071074
C        0.7511154002   -1.6025838525   -3.4420254093
C       -0.0144372927   -0.6464440308   -0.9594374570
C       -0.4703535471   -2.0117428845   -2.8487027058
C        0.0615747870   -2.9449921761   -5.0383567340
C       -1.0940666317    0.9379698574    0.4136574122
N        1.0164038585   -2.1582118178   -4.6905457525
O       -0.3519263698   -0.1962371940    0.3334673055
F       -2.2905314577    0.8220244884   -0.2103702787
F       -0.4710402971    2.0073804763   -0.1333080367
F       -1.3141210453    1.1910401003    1.7076682816
S       -1.2930797719   -3.1324746129   -3.9168670653
Br       0.0326513639   -3.8996175091   -6.6717243525
H        2.5252045659   -0.3986068457   -3.2216799219
H        1.8259854641    0.4660589529   -0.9630715642
H       -1.7960070579   -1.8423766423   -1.1209983384
18   
Generated by ForceBalance from scan.xyz: Frame 17 of 24
C        1.6053770816   -0.7286321511   -2.7441874278
C        1.2116318379   -0.2579003219   -1.4961059152
C       -0.9051623016   -1.4916400053   -1.6335301394
C        0.7463641368   -1.5821512755   -3.4521176508
C       -0.0288577575   -0.6421675557   -0.9673431814
C       -0.5003624498   -1.9549523391   -2.8882476215
C        0.0373733532   -2.8698877567   -5.0845229504
C       -1.1734580251    0.8932563271    0.4137335766
N        1.0140917942   -2.1255622584   -4.7054835620
O       -0.3640175404   -0.1937641330    0.3260876253
F       -2.4640779389    0.5961615635    0.1215312978
F       -0.8005036483    1.8963536012   -0.4086747662
F       -1.1305583760    1.3347841372    1.6763359972
S       -1.3438262745   -3.0255018740   -3.9908982450
Br       0.0035959694   -3.7953277187   -6.7344873429
H        2.5597328836   -0.4489963338   -3.1788125473
H        1.8486312922    0.4033544683   -0.9179754601
H       -1.8500623244   -1.7716879933   -1.1804634502
18   
Generated by ForceBalance from scan.xyz: Frame 18 of 24
C        1.6568104401   -0.7836437463   -2.7238254800
C        1.2626718856   -0.2946500452   -1.4826039747
C       -0.9073627201   -1.4247043007   -1.6623029269
C        0.7701448908   -1.5911729072   -3.4510690813
C       -0.0040012661   -0.6189702087   -0.9776730816
C       -0.5041896537   -1.9025407281   -2.9119969265
C        0.0284703735   -2.8376892466   -5.1008690692
C       -1.2256843765    0.8678752730    0.4098563814
N        1.0338039285   -2.1441463037   -4.7011876396
O       -0.3306381982   -0.1496896315    0.3086883649
F       -2.4979542840    0.4083586888    0.5126436531
F       -1.1863121260    1.7182638603   -0.6344940976
F       -0.9566854508    1.5518396253    1.5311098413
S       -1.3794215348   -2.9266373226   -4.0337741288
Br      -0.0207194756   -3.7568159894   -6.7539870973
H        2.6319659674   -0.5506902411   -3.1394418420
H        1.9193236984    0.3341450436   -0.8901837984
H       -1.8724932749   -1.6631424927   -1.2277736626
18   
Generated by ForceBalance from scan.xyz: Frame 19 of 24
C        1.6361258531   -0.7631223099   -2.6998706480
C        1.2238822325   -0.3090562752   -1.4511967905
C       -0.9361171875   -1.4475911425   -1.6870517150
C        0.7645099337   -1.5586159167   -3.4578856113
C       -0.0469095831   -0.6542629385   -0.9709366584
C       -0.5139475558   -1.8927491385   -2.9424209103
C        0.0526534449   -2.7688108221   -5.1475220332
C       -1.2168806070    0.8525971816    0.4593576618
N        1.0476657835   -2.0782791345   -4.7180090704
O       -0.4004176947   -0.2267673149    0.3214239672
F       -2.4672212291    0.4716585875    0.8100393808
F       -1.3131224777    1.5975698793   -0.6582204257
F       -0.7471466785    1.6308821747    1.4493102322
S       -1.3674364165   -2.8946280197   -4.1003547344
Br       0.0305713755   -3.6462511070   -6.8236989915
H        2.6146841367   -0.5134653644   -3.0974014599
H        1.8702107704    0.3071366856   -0.8345371009
H       -1.9052290055   -1.7012036913   -1.2696695846
18   
Generated by ForceBalance from scan.xyz: Frame 20 of 24
C        1.6027341229   -0.7086989743   -2.7021395685
C        1.1732064226   -0.2865711793   -1.4483728851
C       -0.9530601968   -1.4801993573   -1.7126338774
C        0.7590748202   -1.5202344126   -3.4749884268
C       -0.0907268833   -0.6735520275   -0.9799767426
C       -0.5106840101   -1.8997612471   -2.9701588711
C        0.0922848969   -2.7291164933   -5.1838428215
C       -1.1033518201    0.9074718681    0.5003849134
N        1.0638307121   -2.0144327282   -4.7402238098
O       -0.4788992741   -0.2877758878    0.3152798254
F       -2.3250093607    0.7116869087    1.0383098865
F       -1.2590543893    1.6115645207   -0.6366124249
F       -0.4002875383    1.6646744072    1.3661137810
S       -1.3278647933   -2.9119215558   -4.1451926477
Br       0.1044650591   -3.5836654861   -6.8719273683
H        2.5755904608   -0.4256871400   -3.0912236359
H        1.8023752374    0.3355569143   -0.8198539737
H       -1.9174757700   -1.7625352156   -1.3030700621
18   
Generated by ForceBalance from scan.xyz: Frame 21 of 24
C        1.5483275728   -0.6991382647   -2.6758254219
C        1.0812876845   -0.2884219124   -1.4319861626
C       -1.0057471756   -1.5403767678   -1.7402068250
C        0.7460029630   -1.5377193785   -3.4637783041
C       -0.1828790150   -0.7086140943   -0.9914036214
C       -0.5222498191   -1.9534382208   -2.9848534020
C        0.1521234330   -2.7699724291   -5.1825797237
C       -1.0668836771    0.9314710823    0.5011438749
N        1.0923020487   -2.0256891909   -4.7206445254
O       -0.6269519177   -0.3389852457    0.2903651721
F       -2.2057369131    0.8896406035    1.2137776294
F       -1.3133423772    1.6052171008   -0.6400840853
F       -0.1647714459    1.6457586208    1.2097561965
S       -1.2838356000   -2.9924650946   -4.1736716839
Br       0.2254794463   -3.6272733804   -6.8677730272
H        2.5208735220   -0.3889891437   -3.0444602274
H        1.6821304906    0.3508056576   -0.7929199439
H       -1.9722397527   -1.8439510868   -1.3515109776
18   
Generated by ForceBalance from scan.xyz: Frame 22 of 24
C        1.5567705337   -0.7138233180   -2.6422735786
C        1.0772709453   -0.3098373034   -1.4005252405
C       -1.0214700773   -1.5288634479   -1.7540970597
C        0.7555954761   -1.5327796064   -3.4512950716
C       -0.1990172148   -0.7169407156   -0.9833338097
C       -0.5253536962   -1.9357965445   -2.9955258226
C        0.1704354707   -2.7382950737   -5.1919203698
C       -1.0588441132    0.9318307215    0.4933777738
N        1.1138489984   -2.0122392578   -4.7081511327
O       -0.6618906069   -0.3533963759    0.2953352236
F       -2.0130353940    0.9384836406    1.4342197340
F       -1.5594767448    1.5058824180   -0.6209709000
F       -0.0406132076    1.7139012299    0.9234476000
S       -1.2835172736   -2.9511477535   -4.2068458165
Br       0.2571113507   -3.5787624495   -6.8849621197
H        2.5390537206   -0.4134240663   -2.9927083784
H        1.6774283614    0.3138646949   -0.7461400251
H       -1.9985436120   -1.8214386801   -1.3841057672
18   
Generated by ForceBalance from scan.xyz: Frame 23 of 24
C        1.6202205493   -0.7642089484   -2.6101331563
C        1.1439863059   -0.3569509054   -1.3679205447
C       -1.0070436116   -1.4670607073   -1.7676535479
C        0.7893498989   -1.5272738849   -3.4432411459
C       -0.1553542332   -0.7089391783   -0.9732673709
C       -0.5163271801   -1.8736116270   -3.0108494867
C        0.1667949447   -2.6699716924   -5.2132013710
C       -1.0974875758    0.9175091863    0.4580981464
N        1.1392689734   -2.0014621184   -4.7044906460
O       -0.6068150554   -0.3405846726    0.3098469503
F       -1.7626095332    0.9658547494    1.6179846865
F       -1.9452047559    1.2687372065   -0.5344419090
F       -0.1184931921    1.8528590249    0.4886645477
S       -1.3087446335   -2.8270756916   -4.2504088736
Br       0.2331519360   -3.4826549209   -6.9206263528
H        2.6206774737   -0.5071572095   -2.9431893865
H        1.7627236556    0.2272927665   -0.6951891543
H       -2.0016754773   -1.7189637022   -1.4152025679
18   
Generated by ForceBalance from scan.xyz: Frame 24 of 24
C        1.1788048348   -0.3669856518   -3.2276509805
C        1.0590891803    0.1541123765   -1.9434951861
C       -0.5587271909   -1.5840695421   -1.3272352632
C        0.4291681034   -1.4998938647   -3.5765219564
C        0.1954540068   -0.4567870681   -1.0225959226
C       -0.4314491579   -2.0972515217   -2.6205264836
C       -0.3371658981   -3.1363425846   -4.8257608003
C       -0.8061075269    0.9919768365    0.5452818723
N        0.4535718045   -2.1232689375   -4.8210436900
O        0.1424214436    0.0545430037    0.2902900660
F       -0.6937893488    1.3455711880    1.8297923846
F       -2.0624622668    0.5313945903    0.3365000241
F       -0.6631861962    2.0990900043   -0.2190509988
S       -1.2241953677   -3.4874800044   -3.3364677955
Br      -0.5978258199   -4.2557495025   -6.3288081948
H        1.8396870367    0.0837792603   -3.9610856034
H        1.6256061530    1.0269816833   -1.6368394694
H       -1.2069845790   -2.0280240733   -0.5794391628
