24   

C       -4.2534858070   -1.0923241890    5.2354980569
C       -4.4072098350   -0.5769536787    3.9335697818
C       -2.0772034496   -1.5831338533    4.7813886042
C       -2.2078636567   -1.0693910738    3.4642395938
C       -1.1513787710   -0.5771747403    1.2116694518
C       -0.0365808365   -0.5511808993    0.4173173485
C       -1.0318912658   -1.0975458541    2.5615122465
C       -0.9539104284    0.9614746175   -1.2966597564
C        1.3946642031    0.0113694709   -1.4857863047
N       -3.0894701634   -1.6007588430    5.6753562545
N       -3.4001020679   -0.5586883175    3.0426397450
N        0.1311845658    0.1350126058   -0.7389896955
O        0.0352563968   -1.5613261299    2.9578164505
H       -5.1062358799   -1.0767140659    5.9038389465
H       -5.3716276209   -0.1805633562    3.6384567729
H       -1.1226702630   -1.9852372700    5.1009314904
H       -2.0825149749   -0.1364399794    0.8857075080
H        0.8384182555   -1.0821346869    0.7850101278
H       -1.3010772402    1.6871011237   -0.5541985748
H       -1.7912556455    0.3273825669   -1.6055241631
H       -0.6035536419    1.5169907134   -2.1722938460
H        1.2649322928   -0.6738512783   -2.3298106025
H        2.1932040474   -0.3740737542   -0.8437752562
H        1.7117696914    0.9887789987   -1.8625807974
24   

C       -4.2321397852   -1.0184334206    5.2397837935
C       -4.4227922615   -0.6467883152    3.8945197704
C       -2.0484074322   -1.4872921564    4.7980440963
C       -2.2158736413   -1.1168324738    3.4377671148
C       -1.2022955628   -0.8069492570    1.1327491529
C       -0.0831200804   -0.7225167118    0.3445910135
C       -1.0511098473   -1.1927808280    2.5234116666
C       -0.9490316517    0.9947062179   -1.1926674745
C        1.3969344616    0.0508987091   -1.4444516646
N       -3.0456798928   -1.4429449956    5.7078372982
N       -3.4306764496   -0.6903776849    2.9878254900
N        0.1175053245    0.0964684538   -0.7163210281
O        0.0386603341   -1.5742366100    2.9448449225
H       -5.0742100011   -0.9582803326    5.9190494649
H       -5.4038900018   -0.3125913397    3.5781403663
H       -1.0758839687   -1.8224512689    5.1397927176
H       -2.1488337561   -0.4115500217    0.7929659599
H        0.7926421855   -1.2635903222    0.6956512212
H       -1.3281418843    1.6080842637   -0.3690314093
H       -1.7709843285    0.4114764664   -1.6202158612
H       -0.5675191280    1.6690597362   -1.9658155486
H        1.2837052303   -0.5340662557   -2.3630200380
H        2.1796512652   -0.4090526717   -0.8327514129
H        1.7255134325    1.0626358864   -1.7017994089
24   

C       -4.1910277179   -0.9197451577    5.2363377998
C       -4.4145006490   -0.6940725408    3.8640326236
C       -1.9946534633   -1.3391781311    4.8070332980
C       -2.1950752624   -1.1150118228    3.4196170668
C       -1.2221540780   -0.9951239950    1.0789230888
C       -0.1104440819   -0.8616522626    0.2803462004
C       -1.0389014641   -1.2300990674    2.4984524936
C       -0.9411121658    1.0288000959   -1.0563377319
C        1.3948463290    0.0870320636   -1.4008715859
N       -2.9815079578   -1.2451186114    5.7244532164
N       -3.4328950732   -0.7875669950    2.9497706212
N        0.1101841978    0.0671360986   -0.6809429263
O        0.0735537523   -1.5155194031    2.9360108292
H       -5.0262854348   -0.8261474899    5.9202186532
H       -5.4128888066   -0.4342433048    3.5322653360
H       -1.0041249156   -1.5966871322    5.1640364853
H       -2.1866049542   -0.6547315142    0.7296377354
H        0.7679552017   -1.4145166981    0.6057625589
H       -1.3373378535    1.5289473221   -0.1668223825
H       -1.7552550138    0.5140230865   -1.5765903756
H       -0.5384547434    1.7984867545   -1.7222933995
H        1.2830141518   -0.3940204729   -2.3780462466
H        2.1680991668   -0.4446508149   -0.8371880545
H        1.7354212149    1.1170450547   -1.5452579962
24   

C       -4.1565242652   -0.8108134241    5.2137523583
C       -4.4051074679   -0.7371086979    3.8292965682
C       -1.9466876136   -1.1666271474    4.7954002909
C       -2.1723555445   -1.0950594832    3.3957717481
C       -1.2278250986   -1.1769450052    1.0417766891
C       -0.1363085179   -1.0005074660    0.2132370898
C       -1.0210837146   -1.2459163426    2.4735240764
C       -0.9492708521    1.0297842560   -0.9039727206
C        1.3673249164    0.0945174039   -1.3771029122
N       -2.9274532956   -1.0268568289    5.7136106686
N       -3.4297308774   -0.8769270241    2.9143527109
N        0.0891567358    0.0159717419   -0.6496483034
O        0.1106365522   -1.4230835937    2.9183143365
H       -4.9882003188   -0.6875766824    5.8973027295
H       -5.4182546229   -0.5594799559    3.4881675680
H       -0.9409998231   -1.3390743300    5.1611123649
H       -2.2124904297   -0.9074987396    0.6866154518
H        0.7474675070   -1.5658161388    0.5003302606
H       -1.3438710360    1.4192940075    0.0399665386
H       -1.7672084549    0.5943567278   -1.4868739521
H       -0.5343140099    1.8724465230   -1.4659173199
H        1.2361825428   -0.2659281736   -2.4026045177
H        2.1343514915   -0.5154536257   -0.8893225519
H        1.7283867263    1.1273279322   -1.4034110835
24   

C       -4.1297860070   -0.7228210139    5.1690043492
C       -4.3950041063   -0.8062038236    3.7882606908
C       -1.9052542249   -0.9787868380    4.7545470732
C       -2.1476240696   -1.0648710077    3.3586365856
C       -1.2183900738   -1.3388691455    1.0146078211
C       -0.1552188538   -1.1293624677    0.1424300428
C       -0.9971777362   -1.2357045441    2.4386459039
C       -0.9374930472    1.0226011766   -0.7296968149
C        1.3308564908    0.0748546120   -1.3800345277
N       -2.8848315091   -0.8085885311    5.6689803212
N       -3.4208522236   -0.9768096272    2.8773453046
N        0.0728800027   -0.0445770503   -0.6234618472
O        0.1485329333   -1.2880704545    2.8791929153
H       -4.9616091072   -0.5835138308    5.8492827857
H       -5.4204074007   -0.7280748816    3.4464099806
H       -0.8872952095   -1.0497574595    5.1200501290
H       -2.2231907522   -1.1604573658    0.6581506300
H        0.7283942983   -1.7213846850    0.3688611083
H       -1.2951587050    1.3128477358    0.2634585701
H       -1.7840671305    0.6824406149   -1.3345748947
H       -0.5085673678    1.9117425871   -1.2024703830
H        1.1547778004   -0.1551302365   -2.4359002460
H        2.0876454602   -0.6163738809   -0.9956209208
H        1.7314041633    1.0898613514   -1.2958448808
24   

C       -4.1395135086   -0.9097505957    5.3196895077
C       -4.4542552606   -1.3094038613    4.0062972756
C       -2.1238669614   -0.1347495077    4.5978047995
C       -2.4162074962   -0.5333668412    3.2668664107
C       -1.6524061687   -0.7380593230    0.8556710597
C       -0.5977991070   -0.9828354996   -0.0419927085
C       -1.3905066287   -0.3283084912    2.2149040421
C       -0.2483705390    1.3597700757   -0.6108185595
C        0.9705229577   -0.4926997972   -1.8447793096
N       -2.9749429164   -0.3149906803    5.6310948860
N       -3.6099194008   -1.1256061751    2.9760201520
N       -0.0331895475   -0.0787168568   -0.8505829540
O       -0.2998921737    0.1556676977    2.5055159204
H       -4.8638099003   -1.0913786715    6.1048745904
H       -5.4090790955   -1.7865064774    3.8190768782
H       -1.1700576663    0.3330301198    4.8130384713
H       -2.5795777381   -1.2678386132    0.6871626220
H       -0.4878549070   -2.0189489790   -0.3485197282
H       -1.3166897185    1.5781708798   -0.5150563978
H        0.1385228912    1.9495071062   -1.4476449904
H        0.2672586558    1.6727319522    0.3028611832
H        0.7433296094   -0.0479472779   -2.8186684518
H        0.9815670268   -1.5807157903   -1.9641423032
H        1.9676164673   -0.1717949559   -1.5260750102
24   

C       -4.0864012925   -0.8308001845    5.3035164063
C       -4.4016924543   -1.3390328959    4.0283440635
C       -2.1120446055   -0.0356666442    4.4952331217
C       -2.4053843533   -0.5424427627    3.2014542914
C       -1.6704110245   -0.8971669345    0.8017764989
C       -0.6427459250   -1.0746836508   -0.1276012808
C       -1.4059907922   -0.3667819504    2.1185802547
C       -0.2828949052    1.3211280232   -0.5256157865
C        0.9838150040   -0.4431922914   -1.8308854685
N       -2.9418906602   -0.1713835230    5.5522651412
N       -3.5780158222   -1.2012325382    2.9743728364
N       -0.0356841461   -0.1021281923   -0.8251401556
O       -0.3404368221    0.1935406150    2.3611025880
H       -4.7935406168   -0.9796412122    6.1109215069
H       -5.3402105190   -1.8632558898    3.8915576351
H       -1.1754040112    0.4839904494    4.6612736454
H       -2.5507379873   -1.5166275017    0.7010024741
H       -0.5776249609   -2.0690531296   -0.5594804270
H       -1.3429837280    1.4970179513   -0.3176529269
H       -0.0085835659    1.9437696618   -1.3827483750
H        0.3120865257    1.6376052559    0.3367666934
H        0.8043596375    0.1124036020   -2.7566117770
H        0.9610609781   -1.5113141413   -2.0689932363
H        1.9803665242   -0.1961032012   -1.4505979545
24   

C       -4.0703723724   -0.7897649610    5.2711355006
C       -4.3643972049   -1.3798804226    4.0265655270
C       -2.1193414512    0.0206928022    4.4225997687
C       -2.3916670506   -0.5674528435    3.1587286017
C       -1.6434146842   -1.0349694144    0.7869596276
C       -0.6717114441   -1.1362251631   -0.2011565663
C       -1.3992329374   -0.4120430837    2.0656800810
C       -0.3063397998    1.2885289947   -0.4851703170
C        0.9921889169   -0.4174756520   -1.8290989384
N       -2.9480999415   -0.0816045112    5.4842511478
N       -3.5414053528   -1.2765858204    2.9681387483
N       -0.0237050764   -0.1245103156   -0.8044243313
O       -0.3601874385    0.2055288485    2.2813936779
H       -4.7760043429   -0.9138057118    6.0840305997
H       -5.2859143425   -1.9396118057    3.9178029538
H       -1.2012126007    0.5799837046    4.5608997713
H       -2.4817980627   -1.7153974974    0.7311670104
H       -0.6438888694   -2.0892770452   -0.7212345269
H       -1.3509604454    1.4229162611   -0.1878906310
H       -0.1335469906    1.9183453937   -1.3631879685
H        0.3463218424    1.6342837370    0.3224706447
H        0.8389411430    0.2145505440   -2.7094272363
H        0.9374205891   -1.4618788415   -2.1520982095
H        1.9928393360   -0.2332322290   -1.4247875973
24   

C       -4.0643310422   -0.7850717875    5.2646950465
C       -4.3172690727   -1.4486721489    4.0484853512
C       -2.1369432839    0.0620975371    4.3981926762
C       -2.3687920302   -0.5981252204    3.1619624749
C       -1.5839466990   -1.1410987087    0.8205544347
C       -0.6917623998   -1.1569314940   -0.2359213362
C       -1.3770794820   -0.4434855110    2.0676102065
C       -0.3212409189    1.2827365180   -0.4374764126
C        0.9796295357   -0.3796695970   -1.8268264276
N       -2.9743960334   -0.0220190780    5.4546308379
N       -3.4851708028   -1.3645847965    2.9955259938
N       -0.0133507653   -0.1221979762   -0.7701481082
O       -0.3744738651    0.2368501938    2.2639983655
H       -4.7758762413   -0.8960936184    6.0743094649
H       -5.2143235962   -2.0497675733    3.9573990765
H       -1.2457451526    0.6673097865    4.5180199896
H       -2.3750569046   -1.8778659896    0.8005808457
H       -0.6998628113   -2.0717221117   -0.8213477911
H       -1.3525371459    1.3874022746   -0.0867864824
H       -0.2128085110    1.9162949440   -1.3229952647
H        0.3619841434    1.6491667579    0.3350858162
H        0.8488106164    0.3238076007   -2.6550800448
H        0.8747687884   -1.3921492167   -2.2293244067
H        1.9908561124   -0.2710111732   -1.4215821502
24   

C       -4.0802513458   -0.7797637812    5.2845518727
C       -4.2723510498   -1.5103117366    4.0959560540
C       -2.1776543966    0.1225630441    4.4189293708
C       -2.3491979953   -0.6031097194    3.2096784968
C       -1.4985354885   -1.1997773682    0.9056888591
C       -0.6867210470   -1.1501980025   -0.2079793935
C       -1.3497780076   -0.4371435998    2.1234417667
C       -0.2497546473    1.2842167914   -0.3635867576
C        0.9918160070   -0.3811929156   -1.7937936799
N       -3.0332550619    0.0441153726    5.4611913291
N       -3.4216150073   -1.4329086990    3.0575103270
N        0.0381600647   -0.1236503713   -0.7009454782
O       -0.3945188623    0.3106344482    2.3071754955
H       -4.8045683836   -0.8880215392    6.0831386878
H       -5.1371619642   -2.1581900288    4.0142572324
H       -1.3216988872    0.7785269597    4.5280288939
H       -2.2439465830   -1.9830069273    0.9122222516
H       -0.7390451848   -2.0376659493   -0.8319899939
H       -1.2720491517    1.3979756942    0.0098979480
H       -0.1559717676    1.9163060385   -1.2518085169
H        0.4548349985    1.6456961727    0.3920125339
H        0.8280171989    0.3193057155   -2.6187794225
H        0.8769370436   -1.3953517194   -2.1893347938
H        2.0171410973   -0.2688671699   -1.4269839273
24   

C       -4.1094082309   -0.8451889240    5.2762670238
C       -4.2331912788   -1.6263879478    4.1110974245
C       -2.2482259528    0.1418101959    4.4130968398
C       -2.3521500484   -0.6327182152    3.2264509305
C       -1.4375818495   -1.2360624583    0.9483084519
C       -0.7074214669   -1.1301505869   -0.2149245612
C       -1.3507522965   -0.4327926589    2.1469945195
C       -0.1227074826    1.2774788763   -0.3201442136
C        0.9586044362   -0.4134402936   -1.8363352849
N       -3.1174952895    0.0461544608    5.4425346313
N       -3.3684953760   -1.5323433898    3.0856370628
N        0.0783114649   -0.1372382502   -0.6875251050
O       -0.4528609265    0.3839883832    2.3215149372
H       -4.8422431931   -0.9693136652    6.0647099328
H       -5.0558303354   -2.3278524749    4.0367321795
H       -1.4375837055    0.8542689076    4.5135435502
H       -2.1425438673   -2.0556019521    0.9707216639
H       -0.8188779873   -1.9917392113   -0.8669269109
H       -1.1366855347    1.4446557295    0.0560551780
H        0.0087808402    1.9215682542   -1.1949196718
H        0.6048641076    1.5799750010    0.4396119925
H        0.7075075867    0.2417692026   -2.6765748263
H        0.8569110721   -1.4493843655   -2.1750516901
H        2.0031780997   -0.2498410585   -1.5527715212
24   

C       -4.1610917888   -1.0384338571    5.2441534386
C       -4.0862544175   -1.9025398670    4.1351157431
C       -2.6517492510    0.3524633832    4.2581080677
C       -2.5567398563   -0.5028558548    3.1272710332
C       -1.5270759145   -0.9974824839    0.8717003549
C       -0.7970772749   -0.9363281863   -0.3019619378
C       -1.6409912070   -0.1278209898    2.0157443199
C        0.3772183456    1.2555193133   -0.2984968191
C        0.6943010756   -0.4091359280   -2.1546179952
N       -3.4475855387    0.0978896443    5.3195833626
N       -3.2958308954   -1.6493521055    3.0774495430
N        0.0823792326   -0.0751386148   -0.8552301653
O       -0.9877747055    0.9032368268    2.1186463727
H       -4.8183598788   -1.3025870316    6.0641016987
H       -4.6863409740   -2.8049203186    4.1331453373
H       -2.0612830589    1.2608190180    4.2886830294
H       -2.1367240067   -1.8886483933    0.9241431092
H       -0.9811646793   -1.8191597908   -0.9074505585
H        0.9059352696    1.8693774633   -1.0338421340
H        1.0159562687    1.1665921167    0.5855369907
H       -0.5467739432    1.7859011380   -0.0541184872
H        0.5012144404    0.3888125585   -2.8789107928
H        0.2836783559   -1.3370243284   -2.5651103111
H        1.7754215597   -0.5353564811   -2.0388501247
24   

C       -4.0074250044   -0.9153801794    5.3366430488
C       -3.7832002712   -1.9201999115    4.3757742009
C       -2.9579899534    0.5962935258    3.9962150955
C       -2.7172289085   -0.3996997947    3.0119026089
C       -1.7574556139   -1.0296602556    0.7596176500
C       -1.0039566311   -0.9402337189   -0.3901528568
C       -1.9841780122   -0.0257730684    1.7746067114
C        0.7454099536    0.7197588295    0.1865088185
C        0.3726813356   -0.0398020135   -2.1824453778
N       -3.5995765716    0.3528304243    5.1596630041
N       -3.1446746677   -1.6792615610    3.2171747966
N       -0.0712110578   -0.0422867246   -0.7774563231
O       -1.6251044177    1.1381453460    1.6327209207
H       -4.5271654646   -1.1777506860    6.2504966957
H       -4.1363813853   -2.9246684994    4.5773279801
H       -2.6127661669    1.6090643013    3.8231705026
H       -2.2746710491   -1.9698505773    0.8924209164
H       -1.1830990009   -1.7592314007   -1.0808157131
H        1.7825147678    0.7821900740   -0.1568328762
H        0.7568164492    0.2292539756    1.1647263930
H        0.3580591321    1.7381181878    0.2913687659
H        0.1518630917    0.9293808286   -2.6409537815
H       -0.1388529610   -0.8145525199   -2.7623904109
H        1.4491091774   -0.2292879741   -2.2436836574
24   

C       -3.9779888477   -0.9011043639    5.3082464684
C       -3.6837813218   -1.9395613603    4.4035660480
C       -2.9952044987    0.5969939926    3.9035811492
C       -2.6863101454   -0.4327166625    2.9748122888
C       -1.6850483990   -1.1161754510    0.7567956178
C       -1.0075441760   -0.9746170104   -0.4359365312
C       -1.9688567400   -0.0803336883    1.7229003558
C        0.8101985269    0.5707815748    0.2341363361
C        0.3965183474   -0.0232756542   -2.1818587939
N       -3.6384947615    0.3773837991    5.0708158683
N       -3.0433134529   -1.7224000824    3.2413279883
N       -0.0246743276   -0.1127598080   -0.7730684033
O       -1.6758429085    1.0935346150    1.5188930272
H       -4.4965486222   -1.1451853810    6.2278206019
H       -3.9835957032   -2.9506982386    4.6526216962
H       -2.7066733169    1.6177142126    3.6805654352
H       -2.1603440146   -2.0736934569    0.9192530311
H       -1.2270526968   -1.7517569727   -1.1622924209
H        1.8552428862    0.5948654552   -0.0892394575
H        0.7787150371    0.0449233368    1.1933056526
H        0.4694341620    1.6014759885    0.3740848910
H        0.0951766345    0.9427271896   -2.5995833195
H       -0.0600918218   -0.8157905709   -2.7831840230
H        1.4831672286   -0.1257084985   -2.2644927123
24   

C       -3.9595286327   -0.8557439650    5.3282157226
C       -3.5980837780   -1.9146278738    4.4728542548
C       -3.0232238426    0.6301663238    3.8795300076
C       -2.6488243245   -0.4201020797    2.9993622480
C       -1.5889240426   -1.1393006235    0.8193245903
C       -1.0172925371   -0.9482983975   -0.4253713325
C       -1.9398225760   -0.0829904797    1.7389328737
C        0.8515556448    0.5268268200    0.2534522009
C        0.3847544056    0.0027117696   -2.1741543129
N       -3.6765107555    0.4270236918    5.0441766420
N       -2.9463744023   -1.7139310333    3.3138910220
N        0.0032157822   -0.1335389960   -0.7582619303
O       -1.7101517775    1.0949820783    1.4814893079
H       -4.4847945266   -1.0870761191    6.2472802245
H       -3.8549252858   -2.9281010584    4.7578483654
H       -2.7818483543    1.6539067247    3.6176714432
H       -2.0062717194   -2.1166380608    1.0186075125
H       -1.2944116719   -1.6897162118   -1.1691023240
H        1.8915617589    0.5605556363   -0.0850003032
H        0.8350651013   -0.0219969845    1.2000422514
H        0.5106518391    1.5526848092    0.4246813228
H        0.0571558924    0.9751198927   -2.5558676537
H       -0.0745232005   -0.7813959237   -2.7843645248
H        1.4702991439   -0.0788666765   -2.2879100519
24   

C       -3.9707490242   -0.8505168338    5.3386731598
C       -3.5333256320   -1.9131848567    4.5244054564
C       -3.0766847119    0.6402233666    3.8683754400
C       -2.6277466645   -0.4138381255    3.0288339836
C       -1.4873712244   -1.1348547852    0.8876276936
C       -1.0306995169   -0.9030799689   -0.4034627538
C       -1.9192635627   -0.0760583985    1.7687748210
C        0.8846154091    0.5202622476    0.2307875690
C        0.3630213686   -0.0056719749   -2.1889457596
N       -3.7467254128    0.4366586482    5.0233762328
N       -2.8638283031   -1.7119254076    3.3757074605
N        0.0270637522   -0.1544699043   -0.7631780163
O       -1.7523062451    1.1034343138    1.4713300604
H       -4.5075371762   -1.0825466377    6.2508802918
H       -3.7455703597   -2.9301053488    4.8328686815
H       -2.8838001103    1.6671309950    3.5800210863
H       -1.8351515333   -2.1317388793    1.1205513856
H       -1.3834141541   -1.6092148232   -1.1494711619
H        1.9095607231    0.6010473126   -0.1438929043
H        0.9230857467   -0.0466675156    1.1660786702
H        0.5104072728    1.5283312554    0.4346556371
H        0.0772343193    0.9923830261   -2.5366967267
H       -0.1629732428   -0.7477464935   -2.7978381033
H        1.4373935768   -0.1454433393   -2.3442162936
24   

C       -4.0150750550   -0.8741987161    5.3464483493
C       -3.4928841564   -1.9224649894    4.5640279653
C       -3.1631288100    0.6426089212    3.8776609625
C       -2.6304485892   -0.3968440102    3.0699035456
C       -1.3889933995   -1.0804451659    0.9687662336
C       -1.0378564453   -0.8233023927   -0.3585044527
C       -1.9153736038   -0.0392283091    1.8196601056
C        0.9334219818    0.5337665659    0.1897104107
C        0.3413675788   -0.0337906823   -2.2078858390
N       -3.8547247254    0.4187829767    5.0160910605
N       -2.8010146232   -1.7007240936    3.4324928474
N        0.0577879911   -0.1661547357   -0.7693851303
O       -1.8121155065    1.1408134532    1.4955988210
H       -4.5663700672   -1.1226818425    6.2455773020
H       -3.6570875186   -2.9450931153    4.8827939454
H       -3.0214615606    1.6740033817    3.5759046098
H       -1.6556601292   -2.0951817658    1.2296395918
H       -1.4863736525   -1.4871921345   -1.0917263505
H        1.9240847613    0.6946203555   -0.2465467433
H        1.0675175495   -0.0597023326    1.0995397518
H        0.5085955124    1.5075728469    0.4525485152
H        0.1340383315    0.9898788485   -2.5363714927
H       -0.2791025155   -0.7167846867   -2.7966419573
H        1.3902557704   -0.2711228316   -2.4112715924
24   

C       -4.0763379847   -0.9510851545    5.3574147471
C       -3.4489328299   -1.9579056256    4.5981670360
C       -3.3017032898    0.6225865223    3.9054898405
C       -2.6648759397   -0.3748517171    3.1210654329
C       -1.3085930983   -0.9621513571    1.0583168571
C       -1.0323479562   -0.7064833314   -0.2967186934
C       -1.9521130029    0.0311661123    1.8850022836
C        1.0140373556    0.5438888202    0.1305318008
C        0.3156394884   -0.0753270605   -2.2292639189
N       -4.0076463024    0.3493715916    5.0241973046
N       -2.7414712795   -1.6864418846    3.4873308237
N        0.0921035585   -0.1630569018   -0.7768243905
O       -1.9406214728    1.2099629737    1.5408567617
H       -4.6349027104   -1.2390684761    6.2401267240
H       -3.5430182030   -2.9892637166    4.9172529460
H       -3.2330145076    1.6603247129    3.6000779577
H       -1.4573309009   -1.9930690680    1.3477894517
H       -1.6009191499   -1.3061219370   -1.0015148638
H        1.9519238354    0.7778490495   -0.3826798490
H        1.2550268012   -0.0802302430    0.9968881393
H        0.5629538419    1.4802387452    0.4746276092
H        0.2033254735    0.9612634828   -2.5633520996
H       -0.4037337255   -0.6925293446   -2.7767234349
H        1.3216756264   -0.4269490933   -2.4785264418
24   

C       -3.8459788560   -0.9261529622    5.3568841907
C       -2.9461018403   -1.7534117859    4.6571568488
C       -4.0507559516    0.4018348275    3.5183200303
C       -3.1457246221   -0.4164735846    2.7930423234
C       -1.8982447211   -0.8740691575    0.6325614903
C       -1.3021433039   -0.3520241987   -0.5107160412
C       -2.8067528553   -0.0504125972    1.3965498142
C        0.9575114258   -0.1697265708    0.4189716821
C        0.4000272720    0.7270865074   -1.8943544601
N       -4.4092162296    0.1589752623    4.7978702195
N       -2.5895749418   -1.5132693301    3.3831559413
N       -0.0270937566    0.0595036147   -0.6529545642
O       -3.2925902517    0.9538593554    0.8818835249
H       -4.0896857650   -1.1761047792    6.3826754188
H       -2.5236180175   -2.6134454253    5.1633832648
H       -4.4828941308    1.2702206968    3.0345503593
H       -1.3954600728   -1.6725314236    1.1599928138
H       -2.0036274036    0.0846099040   -1.2176847545
H        1.2272103400   -1.2296903374    0.4638335345
H        0.5511867543    0.1420822160    1.3865465679
H        1.8665224241    0.4119465830    0.2361586380
H        1.0313314080    1.5910908373   -1.6647528073
H       -0.4628971388    1.0854277576   -2.4646646955
H        0.9633393257    0.0270403628   -2.5199450614
24   

C       -3.9507363665   -0.9757950326    5.3483195427
C       -2.9333866677   -1.7095085494    4.7075944073
C       -4.2201629025    0.2848869203    3.4712419216
C       -3.1971732401   -0.4395384624    2.8051846800
C       -1.7983620649   -0.7910668878    0.7179543541
C       -1.2554028616   -0.2463725925   -0.4298881545
C       -2.8383411926   -0.0645586309    1.4161157633
C        1.0814936049   -0.2561709323    0.3249284644
C        0.4147058722    0.7616831770   -1.9076459109
N       -4.6063726601    0.0277481358    4.7398402328
N       -2.5487996283   -1.4550301243    3.4445575994
N        0.0357580774    0.0866061450   -0.6547459977
O       -3.4149840054    0.8648164436    0.8559472127
H       -4.2107714886   -1.2318313810    6.3685851399
H       -2.4408584640   -2.5067686387    5.2518267762
H       -4.7243085170    1.0898867100    2.9490461045
H       -1.2344566312   -1.5259628970    1.2749437373
H       -1.9758539980    0.2301664002   -1.0908914057
H        1.2637327626   -1.3355990150    0.3203759455
H        0.7821877494    0.0568939448    1.3303387289
H        2.0186769364    0.2540076308    0.0810983646
H        1.1363540442    1.5597996648   -1.7076690503
H       -0.4583406790    1.2133653696   -2.3894128646
H        0.8602207144    0.0404672934   -2.6005631447
24   

C       -4.0268566463   -1.0458434963    5.3525521831
C       -2.9124185005   -1.6762225042    4.7653990768
C       -4.3376556200    0.1690378794    3.4521003631
C       -3.2172616791   -0.4515873747    2.8398221445
C       -1.6902465153   -0.6684362830    0.8245126522
C       -1.2055934150   -0.1196954082   -0.3397044608
C       -2.8377482657   -0.0525357718    1.4631490945
C        1.1808695169   -0.3083577117    0.2266166634
C        0.4148164119    0.7712102215   -1.9435941423
N       -4.7526161412   -0.1179150322    4.7050348980
N       -2.4984564943   -1.3914911354    3.5181057300
N        0.0877957243    0.1209706189   -0.6632451466
O       -3.4875674330    0.8033237554    0.8667325616
H       -4.3057909012   -1.3208008554    6.3628506729
H       -2.3674323890   -2.4164777659    5.3393076876
H       -4.8968321461    0.9154607648    2.8997552620
H       -1.0792438410   -1.3488315326    1.4005046769
H       -1.9440014477    0.3756490706   -0.9662257606
H        1.2617419635   -1.4001195709    0.2255607614
H        1.0022305354    0.0416876844    1.2483469926
H        2.1358872829    0.1085082827   -0.1083691988
H        1.2183890053    1.5014300791   -1.8064274598
H       -0.4537141533    1.3019142757   -2.3465293512
H        0.7336528072    0.0199442627   -2.6734779066
24   

C       -4.1020042056   -1.1253109146    5.3346093809
C       -2.9029324398   -1.6437270687    4.8076848941
C       -4.4357221985    0.0490573769    3.4128250328
C       -3.2305478975   -0.4593803581    2.8608534507
C       -1.5919901629   -0.5338276721    0.9257402065
C       -1.1515387412   -0.0024913018   -0.2593363654
C       -2.8262820690   -0.0314188366    1.4999832321
C        1.2482033495   -0.3905732348    0.1312684826
C        0.4143605510    0.7300519438   -1.9916446599
N       -4.8823134178   -0.2747096619    4.6457080944
N       -2.4571796052   -1.3220109732    3.5804689551
N        0.1306334915    0.1237472106   -0.6797407314
O       -3.5314345541    0.7502100770    0.8655036098
H       -4.4028849706   -1.4247606841    6.3315573711
H       -2.3173655399   -2.3258365468    5.4128097408
H       -5.0379547570    0.7350028692    2.8282613484
H       -0.9497719360   -1.1671926867    1.5208380987
H       -1.8986696687    0.5063982400   -0.8641401000
H        1.2195354400   -1.4845210694    0.1631081442
H        1.1940221667    0.0045912738    1.1506998487
H        2.2076457367   -0.0841649462   -0.2972756430
H        1.2818716649    1.3940022687   -1.9253381501
H       -0.4357864904    1.3250843938   -2.3403076957
H        0.6175126773   -0.0530762464   -2.7293518182
24   

C       -4.2876187818   -1.1537677902    5.2364030497
C       -4.3654779607   -0.4344071926    4.0278013347
C       -2.1669722969   -1.7966579943    4.7140627917
C       -2.2217166851   -1.0788095261    3.4903036115
C       -1.0817599591   -0.3640804278    1.3403986046
C       -0.0069655727   -0.4473399251    0.4962869455
C       -1.0405879459   -1.0945406155    2.5940329725
C       -1.1367492675    0.4858145638   -1.4835108397
C        1.3048885517   -0.2126531640   -1.5555608984
N       -3.1902228805   -1.8425787997    5.5944128258
N       -3.3474456236   -0.3880137283    3.1504079976
N        0.0416192895   -0.0866183743   -0.8087986407
O       -0.0342095575   -1.7227768562    2.9156972468
H       -5.1450303623   -1.1496527085    5.8989233863
H       -5.2785094193    0.1012035570    3.7958244495
H       -1.2648795417   -2.3407845390    4.9691803100
H       -1.9844559986    0.1533914971    1.0490636497
H        0.8897441031   -0.9188504108    0.8916677373
H       -1.3798616673    1.4633964958   -1.0547380941
H       -1.9979425904   -0.1818833990   -1.3794332510
H       -0.9413693052    0.6194032590   -2.5521848047
H        1.1161369410   -0.6027135496   -2.5605936841
H        1.9899775226   -0.9028516029   -1.0528740047
H        1.7914906366    0.7648744352   -1.6354847278
24   

C       -4.2752386891   -1.1564973043    5.2388901974
C       -4.3921308923   -0.5143977463    3.9905785685
C       -2.1137192140   -1.6875923478    4.7603167830
C       -2.2075988341   -1.0471696421    3.4965839772
C       -1.1081744482   -0.3966032440    1.3068941756
C       -0.0100437265   -0.4225271490    0.4893267757
C       -1.0238906758   -1.0417877648    2.6034543446
C       -1.0194924900    0.8580500014   -1.3553288271
C        1.3436788999   -0.0572048779   -1.5146170576
N       -3.1373162681   -1.7495531006    5.6392780433
N       -3.3736428692   -0.4517055383    3.1147355593
N        0.1003436170    0.1199367658   -0.7447931056
O        0.0175923010   -1.5871848233    2.9624713924
H       -5.1355403436   -1.1711575975    5.8975028056
H       -5.3368408293   -0.0544712971    3.7254223510
H       -1.1799691751   -2.1565811430    5.0485642854
H       -2.0258349681    0.0857387538    1.0025765337
H        0.8708527686   -0.9387979903    0.8636132295
H       -1.3293236231    1.6845820491   -0.7078742251
H       -1.8686147770    0.1873975912   -1.5221931344
H       -0.7216730051    1.2788266129   -2.3209430157
H        1.1848555463   -0.7785430092   -2.3227130226
H        2.1525896534   -0.4258518438   -0.8756831867
H        1.6643227808    0.8978153156   -1.9425512539
