29   

C        2.3220056773   -3.3713152187    0.4960855452
C        3.1980987794   -2.5967793289    1.2589489821
C        0.9445131400   -3.2466185567    0.6856205214
C        2.6974110174   -1.7147395468    2.2231506994
C        0.4430494084   -2.3633996720    1.6479499063
C       -0.1733532264   -3.4794186846    5.7544465489
C        0.4098258602   -4.7286297798    5.9782412215
C       -1.1143467085   -4.3114959938    3.6965882503
C        1.3108384069   -1.6114618286    2.4591259217
C       -0.9290603675   -3.2543779399    4.5998908757
C        0.2457884575   -5.7761640113    5.0634957509
C       -0.5294568222   -5.5650994134    3.9089478928
C        0.8672672910   -0.6482524085    3.4698439638
C       -0.3002261262   -0.4753195610    4.1185626354
O       -2.5075404629   -1.6521659563    3.0642590133
O       -2.4798290719   -1.2135973398    5.4586738808
S       -1.6897845528   -1.6260970260    4.2885706422
Cl       1.0007436036   -7.3234807642    5.3776836741
Cl      -0.7754750399   -6.8391751712    2.7340686281
H        2.7082428138   -4.0565239998   -0.2504011333
H        4.2678108552   -2.6790982736    1.1025215449
H        0.2596682353   -3.8253173542    0.0757723626
H        3.3994856413   -1.1232240715    2.8001523723
H       -0.6285402125   -2.2556247156    1.7179125444
H       -0.0402292920   -2.6824328457    6.4809619026
H        0.9977691877   -4.8947433441    6.8730809164
H       -1.7230563665   -4.1644226255    2.8087574500
H        1.6254189722    0.0750432614    3.7524033470
H       -0.4374725033    0.4184996897    4.7082056931
29   

C        2.1688332845   -3.5528025867    0.6819309864
C        3.0575576505   -2.9056575291    1.5439574943
C        0.8156315366   -3.2072310181    0.6939565849
C        2.5900918421   -1.9283867277    2.4300300133
C        0.3474808116   -2.2302779059    1.5793949245
C       -0.1068638359   -3.4261883436    5.7115847608
C        0.5518707738   -4.6442523388    5.8954186110
C       -0.9823593847   -4.2416654347    3.6188196568
C        1.2209392305   -1.6029353583    2.4840970223
C       -0.8670836482   -3.2074248523    4.5590220505
C        0.4602313774   -5.6659162663    4.9417847832
C       -0.3208080990   -5.4626065420    3.7899868749
C        0.7885850688   -0.5637590292    3.4267177528
C       -0.3743241938   -0.4020685206    4.0822573255
O       -2.5500290767   -1.6655013417    3.0763056649
O       -2.4862164971   -1.2413408124    5.4753896194
S       -1.7081014031   -1.6124482806    4.2834365883
Cl       1.3133218271   -7.1713988321    5.2033753712
Cl      -0.4757996369   -6.7037429609    2.5653386321
H        2.5293680563   -4.3123781879   -0.0029062412
H        4.1108037417   -3.1622393853    1.5259737768
H        0.1270522026   -3.6895674477    0.0090938849
H        3.2962029879   -1.4382125812    3.0909536152
H       -0.6971973536   -1.9509664785    1.5312093095
H       -0.0263130695   -2.6474944007    6.4651499964
H        1.1447258100   -4.8053468093    6.7878491380
H       -1.5898954652   -4.0980194787    2.7297019755
H        1.5488908660    0.1716656250    3.6695139144
H       -0.5408717816    0.5036682939    4.6453598714
29   

C        1.9549151774   -3.7091538385    0.8288070565
C        2.8092315174   -3.2514097325    1.8358162096
C        0.7022450822   -3.1144001511    0.6569598138
C        2.4073416923   -2.2072085649    2.6767166036
C        0.2978314665   -2.0742028526    1.5007866154
C       -0.0856480316   -3.3881517619    5.6851013978
C        0.6451907754   -4.5678992765    5.8469834345
C       -0.8671314167   -4.1929769259    3.5515172297
C        1.1372304989   -1.6222771799    2.5329554373
C       -0.8332821994   -3.1812849992    4.5220952538
C        0.6382100522   -5.5628833225    4.8611529906
C       -0.1337067886   -5.3750245831    3.7008704377
C        0.7369044206   -0.5324933946    3.4406843584
C       -0.4296955076   -0.3681635046    4.0831935455
O       -2.5434759899   -1.6832929084    3.0238444841
O       -2.5425221201   -1.2830473746    5.4335251096
S       -1.7324345136   -1.6162321008    4.2515431451
Cl       1.5875494658   -7.0148694127    5.0914772126
Cl      -0.1829492139   -6.5838057374    2.4356084281
H        2.2646893871   -4.5200697435    0.1788861821
H        3.7838601768   -3.7080945995    1.9659819107
H        0.0419926373   -3.4571528780   -0.1319864025
H        3.0802972506   -1.8656318474    3.4551399721
H       -0.6704230407   -1.6121858795    1.3394572565
H       -0.0650285927   -2.6267633666    6.4600261973
H        1.2317328045   -4.7180887452    6.7454449999
H       -1.4588051029   -4.0561596633    2.6507196088
H        1.5147255821    0.1854044362    3.6802552230
H       -0.6160015135    0.5356408183    4.6429341435
29   

C        1.8470416042   -3.7480609206    0.8906263072
C        2.6266529747   -3.3936797874    1.9956230016
C        0.6928444408   -3.0187492865    0.5912306892
C        2.2526323354   -2.3112453346    2.8003170364
C        0.3159873055   -1.9403983874    1.3991224782
C       -0.0781122954   -3.3634552251    5.6551662092
C        0.6730532885   -4.5294368306    5.8248933856
C       -0.8015849003   -4.1711232734    3.5019634610
C        1.0907881315   -1.5767877120    2.5123706319
C       -0.8077020721   -3.1650508645    4.4790622924
C        0.7022432403   -5.5202300001    4.8352923616
C       -0.0519676709   -5.3419453187    3.6619460953
C        0.6919943487   -0.4564548508    3.3922654672
C       -0.4509102876   -0.3416796510    4.0807140972
O       -2.5003456882   -1.6861457079    2.9417218530
O       -2.5850130212   -1.3127549283    5.3565298436
S       -1.7321621362   -1.6162468274    4.1967303377
Cl       1.6751370795   -6.9547830429    5.0765513946
Cl      -0.0588461887   -6.5489695380    2.3939207371
H        2.1348775269   -4.5885855891    0.2688349437
H        3.5194963218   -3.9617509086    2.2311862013
H        0.0853135001   -3.2896645015   -0.2651286361
H        2.8615255633   -2.0518905650    3.6590000776
H       -0.5844394995   -1.3837700220    1.1580033391
H       -0.0863137389   -2.6056908922    6.4338272582
H        1.2466134352   -4.6725047226    6.7329054895
H       -1.3746224527   -4.0381147613    2.5885948636
H        1.4530052186    0.2933522448    3.5829811507
H       -0.6456095948    0.5391056615    4.6731934630
29   

C        2.0812644822   -3.2008717640    0.8074135834
C        2.3630966203   -3.9910361997    1.9260918477
C        1.8244519471   -1.8357502748    0.9664060842
C        2.3931614368   -3.4154900668    3.2016116832
C        1.8527147552   -1.2614940674    2.2420048182
C       -0.8249578041   -3.9144595653    4.9266813629
C       -0.9392731354   -5.1886793615    4.3642040435
C       -1.0269840768   -2.9506482110    2.7257598568
C        2.1472752585   -2.0436623913    3.3688127183
C       -0.8487994325   -2.7819920317    4.1067158385
C       -1.0925264058   -5.3570376315    2.9821487433
C       -1.1463481958   -4.2223034294    2.1533358132
C        2.1380856025   -1.4559277123    4.7318931350
C        1.0608777457   -1.0821932333    5.4302754968
O       -0.8100274688   -0.0828867487    3.7617218375
O       -1.5529480464   -0.9114615896    5.9397599384
S       -0.6372767252   -1.1084611150    4.8050390365
Cl      -1.2112232564   -6.9708493351    2.3155805530
Cl      -1.3458950334   -4.3719225531    0.4204427112
H        2.0531291814   -3.6474435798   -0.1803914844
H        2.5505572035   -5.0519629498    1.8050240805
H        1.5965026194   -1.2211934419    0.1026048761
H        2.6000168943   -4.0396997897    4.0635249928
H        1.6361277826   -0.2040214965    2.3590373823
H       -0.7087575428   -3.8048657432    6.0014299800
H       -0.9079686458   -6.0636250016    5.0025873931
H       -1.0585753195   -2.0797587132    2.0768887529
H        3.0902047970   -1.4458306215    5.2525561558
H        1.1602105759   -0.7227888172    6.4429870811
29   

C        2.1000067717   -3.2793193112    0.8611411851
C        2.2728393000   -4.0141885115    2.0381577211
C        1.9395252336   -1.8916875193    0.9241414969
C        2.2877670053   -3.3612636486    3.2760795398
C        1.9575756829   -1.2397569610    2.1622229203
C       -0.7993052397   -3.9544822776    4.9175869242
C       -0.9078712187   -5.2112780339    4.3153915953
C       -1.0269135029   -2.9231091223    2.7495174929
C        2.1401816937   -1.9678322427    3.3463124774
C       -0.8393662629   -2.7967775014    4.1339283097
C       -1.0729237779   -5.3368071866    2.9299864735
C       -1.1430343874   -4.1768088191    2.1381742248
C        2.1264060470   -1.2895134311    4.6700026622
C        1.0602188145   -1.0368348903    5.4342764506
O       -0.9286197911   -0.0925638923    3.8835375024
O       -1.5321067052   -1.0225168908    6.0613925306
S       -0.6601556970   -1.1414301955    4.8820550511
Cl      -1.1860488901   -6.9293315519    2.2131626763
Cl      -1.3591891097   -4.2727325436    0.4034381237
H        2.0810469739   -3.7856094872   -0.0976622614
H        2.3854948484   -5.0914522650    1.9915504506
H        1.7953009501   -1.3200290977    0.0141145012
H        2.4097851896   -3.9405678193    4.1842869724
H        1.8173743574   -0.1643559653    2.2057816368
H       -0.6787102383   -3.8779017089    5.9947868206
H       -0.8651605181   -6.1060365510    4.9250711111
H       -1.0718468252   -2.0322324544    2.1290749057
H        3.0997569887   -1.0568199732    5.0898235708
H        1.1829347547   -0.6684731377    6.4412059350
29   

C        2.7883031017   -4.2957557783    2.0007114568
C        3.1455881992   -4.1035584551    3.3386401745
C        2.0482290627   -3.3161482351    1.3323334514
C        2.7582741725   -2.9364868623    4.0068926939
C        1.6646330142   -2.1491156920    2.0025144785
C       -0.3982657056   -4.1793695138    3.9962225063
C       -0.7766356442   -4.8744859566    2.8471973231
C       -1.7264167884   -2.2989480347    3.2794381596
C        2.0025143710   -1.9545791265    3.3505991127
C       -0.8571981936   -2.8759195210    4.2152498832
C       -1.6182488381   -4.2878158703    1.8958762012
C       -2.1038854019   -2.9853366357    2.1172434442
C        1.6164645780   -0.7049149725    4.0536402430
C        0.6689720958   -0.5680780713    4.9868592657
O       -1.4469010052   -1.3783680923    6.4010581597
O        0.5584983769   -2.7740345709    6.5355539904
S       -0.2950532709   -1.9359500457    5.6754085659
Cl      -2.0407993412   -5.1815086753    0.4518040761
Cl      -3.1576847579   -2.2037158700    0.9588661318
H        3.0871778475   -5.1998051542    1.4818961267
H        3.7239018458   -4.8573228813    3.8612731992
H        1.7697029554   -3.4598548010    0.2943424796
H        3.0369258738   -2.7967743346    5.0469470401
H        1.0902860358   -1.3962574551    1.4741130938
H        0.2717300532   -4.6465084504    4.7137164725
H       -0.4028771729   -5.8779168338    2.6826344801
H       -2.1057624581   -1.2947389075    3.4431842063
H        2.0700012986    0.2075031443    3.6800117526
H        0.4268860846    0.4032832596    5.3900445817
29   

C        2.8474054201   -4.2853831173    2.0180143422
C        3.0672228331   -4.1107180855    3.3872402933
C        2.2083543341   -3.2819087000    1.2844439688
C        2.6400282118   -2.9390194823    4.0219433503
C        1.7875298688   -2.1084723308    1.9203197468
C       -0.4114490850   -4.1920277604    3.9949101589
C       -0.8038593849   -4.8720754935    2.8415559414
C       -1.7303282909   -2.2944913607    3.3077143724
C        1.9831324431   -1.9310626064    3.2986739001
C       -0.8572747411   -2.8869505860    4.2299324148
C       -1.6495689944   -4.2696462675    1.9036923474
C       -2.1239991017   -2.9662901224    2.1427832020
C        1.5350846803   -0.6883072074    3.9660982485
C        0.6707270690   -0.5830064508    4.9832800024
O       -1.4104908450   -1.4096486784    6.4389637957
O        0.5998797590   -2.8000523174    6.5279987557
S       -0.2710333384   -1.9591507298    5.6882337280
Cl      -2.0924188740   -5.1455672540    0.4548381795
Cl      -3.1836096050   -2.1653089092    1.0030745947
H        3.1754699461   -5.1940396588    1.5255497955
H        3.5698046616   -4.8815185739    3.9608783418
H        2.0370541752   -3.4124007173    0.2217837945
H        2.8191560825   -2.8147624321    5.0855706741
H        1.2900834427   -1.3393890038    1.3398842345
H        0.2596285083   -4.6721171395    4.7027069002
H       -0.4392476286   -5.8765325709    2.6632771713
H       -2.0997186005   -1.2887606730    3.4842841245
H        1.8584955612    0.2400428182    3.5063551593
H        0.4396678955    0.3814109316    5.4090890639
29   

C        2.9381555350   -4.2200077359    1.9827390301
C        2.9751816742   -4.1077968391    3.3746933568
C        2.4433459639   -3.1624319871    1.2157296731
C        2.5064765156   -2.9457302140    3.9975422686
C        1.9814630558   -1.9985673349    1.8405215342
C       -0.4718362162   -4.1820180159    4.0738776438
C       -0.8817285855   -4.8997052735    2.9497125750
C       -1.7545489396   -2.2875813755    3.3140767790
C        1.9906428089   -1.8803797955    3.2396474813
C       -0.8906124478   -2.8597865401    4.2571467350
C       -1.7207678358   -4.3193156425    1.9919714615
C       -2.1677400840   -2.9980322743    2.1795914854
C        1.4740279099   -0.6565091255    3.8779540664
C        0.6641752122   -0.5463310133    4.9421104181
O       -1.4353545796   -1.3004043698    6.4079722154
O        0.5506761864   -2.7130206263    6.5624305527
S       -0.2983530873   -1.8894858034    5.6842542660
Cl      -2.1929043896   -5.2460494264    0.5845516978
Cl      -3.2206116237   -2.2239608974    1.0153125784
H        3.2978628534   -5.1213900996    1.4990633023
H        3.3709840512   -4.9189558156    3.9755962740
H        2.4153334146   -3.2438813648    0.1348961322
H        2.5619335812   -2.8719105744    5.0783563186
H        1.5947660572   -1.1900224277    1.2301284464
H        0.1876939994   -4.6487532657    4.8011824213
H       -0.5398291576   -5.9183876507    2.8113305287
H       -2.1050991041   -1.2691953160    3.4523358209
H        1.7213453533    0.2721382740    3.3736795816
H        0.4562763515    0.4248092601    5.3647916735
29   

C        3.0358064375   -4.0341724762    1.7318753327
C        2.7687047216   -4.1483471878    3.0970776749
C        2.8214726858   -2.8153139120    1.0865687562
C        2.2771234725   -3.0503917830    3.8117232414
C        2.3319147021   -1.7182541803    1.8038850444
C       -0.6795803465   -4.3060534700    4.3343950795
C       -1.1066369893   -5.1047702316    3.2727226552
C       -1.5975680863   -2.3706150227    3.2274306022
C        2.0358168978   -1.8186730847    3.1748676121
C       -0.9101460961   -2.9258695094    4.3150795716
C       -1.7733940532   -4.5475776429    2.1756359477
C       -2.0245006438   -3.1630133976    2.1541797457
C        1.4875024921   -0.6491378751    3.8708062028
C        0.6529315345   -0.5596063127    4.9213517992
O       -1.4770986260   -1.2550021455    6.3676412955
O        0.4920011429   -2.6577649679    6.6277613910
S       -0.3296150179   -1.8751239919    5.6885319109
Cl      -2.2816661265   -5.5825637192    0.8590995627
Cl      -2.8567064757   -2.4137887082    0.8090160131
H        3.4147386979   -4.8853924415    1.1772135000
H        2.9498536200   -5.0870847742    3.6082301111
H        3.0321012610   -2.7195955105    0.0272782668
H        2.1182103451   -3.1656702878    4.8757547159
H        2.1657947992   -0.7841830563    1.2787339568
H       -0.1628275258   -4.7589563056    5.1770995686
H       -0.9192171086   -6.1717242953    3.2951890455
H       -1.8019101213   -1.3047104505    3.2040377275
H        1.7648599281    0.3052555053    3.4347003317
H        0.4489584722    0.4115618461    5.3464203866
29   

C        3.3431328259   -3.9362527895    1.7049331335
C        2.8302861175   -4.1448918758    2.9852826851
C        3.2553515264   -2.6701254091    1.1267870229
C        2.2226000431   -3.0939809021    3.6813657899
C        2.6481496127   -1.6207099717    1.8248541825
C       -0.7889883537   -4.3438477946    4.3990076943
C       -1.3004523442   -5.1636908977    3.3917691324
C       -1.7282160774   -2.4208654176    3.2878797037
C        2.1088345871   -1.8098534557    3.1117901053
C       -0.9889235749   -2.9594785132    4.3498825325
C       -2.0230076903   -4.6240622466    2.3213243461
C       -2.2412320117   -3.2348258133    2.2699768759
C        1.4424836690   -0.6768155944    3.7569882841
C        0.6016603581   -0.5815683806    4.8046188615
O       -1.4303438811   -1.2475405074    6.3943534398
O        0.5509001878   -2.6439324200    6.5701903846
S       -0.3236132846   -1.8816674922    5.6627896173
Cl      -2.6428120440   -5.6864432325    1.0762275536
Cl      -3.1422956625   -2.5067603800    0.9577927377
H        3.8127148184   -4.7512934222    1.1654449882
H        2.9102456274   -5.1223350578    3.4473660061
H        3.6554026039   -2.5001666502    0.1334517875
H        1.8803459621   -3.2988762824    4.6836052606
H        2.5860854198   -0.6501946766    1.3451564027
H       -0.2363442580   -4.7846818080    5.2253023898
H       -1.1394952698   -6.2342898209    3.4377645315
H       -1.9113681573   -1.3517091210    3.2432531782
H        1.6711919386    0.2821573826    3.3031762022
H        0.3527388743    0.4012083567    5.1759377657
29   

C        2.8480716516   -2.1961288723    0.3981605153
C        1.4892035524   -2.1444646269    0.7054601828
C        3.7858451303   -1.8886361069    1.3823645401
C        1.0691152271   -1.7926639028    1.9932226473
C        3.3631074242   -1.5369204720    2.6687514007
C       -0.7088839062   -4.1786412629    5.3647505883
C       -0.6499514862   -5.5528834201    5.1236575321
C       -1.4878992597   -3.8356425867    3.1090312920
C        1.9959776804   -1.4836688375    3.0097179211
C       -1.1134191776   -3.3027487737    4.3517658531
C       -0.9991536243   -6.0817159708    3.8753945177
C       -1.4268040051   -5.2115764335    2.8559781389
C        1.6517682300   -1.1550317751    4.3938911743
C        0.5039679391   -1.0449878674    5.0926639046
O       -1.6783369073   -0.7795722014    3.4766253952
O       -2.0412979697   -1.2536950352    5.8383527839
S       -1.1947590245   -1.5058978906    4.6623260739
Cl      -0.9046449631   -7.8095974019    3.6128328956
Cl      -1.8861403889   -5.8177832702    1.2794267605
H        3.1721091434   -2.4700789355   -0.5997484853
H        0.7535187099   -2.3732180951   -0.0575292084
H        4.8443980481   -1.9248277278    1.1505783374
H        0.0082193048   -1.7504989950    2.1582099782
H        4.1205464091   -1.3111384575    3.4110473485
H       -0.4430632002   -3.7917987302    6.3448262088
H       -0.3324781681   -6.2241926267    5.9129358736
H       -1.8400562422   -3.1767613433    2.3201629742
H        2.5178851434   -0.9047258894    4.9977997779
H        0.5606723777   -0.6501709424    6.0958863764
29   

C        2.5737042238   -2.6838900972    0.6592738225
C        1.2555810646   -2.2934618914    0.8950608631
C        3.5375835967   -2.4841017362    1.6474503000
C        0.9003021654   -1.7157603927    2.1189710360
C        3.1794533282   -1.9070694519    2.8708054412
C       -0.3692636536   -4.1254122439    5.3946493351
C       -0.1334511907   -5.4672090054    5.0870671996
C       -1.3050000163   -3.8081784359    3.1954783690
C        1.8521548331   -1.5215584822    3.1399369982
C       -0.9433454480   -3.2774988806    4.4426907881
C       -0.4703185628   -5.9901984039    3.8325019729
C       -1.0668833373   -5.1496541747    2.8753589461
C        1.5406387527   -0.9859316772    4.4666903558
C        0.3870297600   -0.8071182444    5.1389706228
O       -1.9173080863   -0.8440460664    3.7014056474
O       -2.0349697395   -1.4123830376    6.0648053503
S       -1.2495257851   -1.5206135277    4.8259749140
Cl      -0.1492971864   -7.6750373943    3.4845288840
Cl      -1.5155157278   -5.7490859386    1.2931193552
H        2.8478569629   -3.1335370811   -0.2886596377
H        0.5048356159   -2.4302148290    0.1247041389
H        4.5648302701   -2.7811210051    1.4682457260
H       -0.1209768516   -1.3886489001    2.2346791316
H        3.9483405425   -1.7759970126    3.6240416007
H       -0.1072567659   -3.7417763129    6.3769244359
H        0.3155700443   -6.1176022291    5.8282729962
H       -1.7801063684   -3.1720281911    2.4537970468
H        2.4138765486   -0.6576680495    5.0211662923
H        0.4082754607   -0.2335001118    6.0532995040
29   

C        2.3665368658   -2.8756687010    0.7558141591
C        1.1397761229   -2.2297742358    0.9151884077
C        3.3044396109   -2.8398219792    1.7888690445
C        0.8467038009   -1.5625741660    2.1097194451
C        3.0092240738   -2.1707640697    2.9819708467
C       -0.2860194023   -4.0824338034    5.3888580591
C        0.0353272094   -5.4020036240    5.0621140538
C       -1.1457724772   -3.7638831098    3.1594254714
C        1.7694638624   -1.5350269365    3.1722012215
C       -0.8641240533   -3.2440851540    4.4312327929
C       -0.2184440512   -5.9113729036    3.7823850525
C       -0.8206319461   -5.0816408078    2.8196340963
C        1.4908088535   -0.8916382573    4.4613580667
C        0.3362431087   -0.7085524134    5.1266550653
O       -1.9683295967   -0.8636078342    3.7076790299
O       -2.0442455518   -1.4450043895    6.0721067297
S       -1.2625267429   -1.5088142621    4.8276568781
Cl       0.2136095457   -7.5656938660    3.4093496054
Cl      -1.1648263333   -5.6632990730    1.2048905502
H        2.5918448307   -3.3962927911   -0.1683708768
H        0.4140387196   -2.2391175256    0.1095809009
H        4.2613131082   -3.3349495079    1.6673665378
H       -0.0974671730   -1.0391979243    2.1829807484
H        3.7498254825   -2.1654952760    3.7739121366
H       -0.0847068080   -3.7074481053    6.3886252645
H        0.4887904144   -6.0449336924    5.8070041385
H       -1.6189363330   -3.1340783968    2.4112410486
H        2.3722650229   -0.5375213246    4.9862005843
H        0.3328208389   -0.0893194513    6.0108380154
29   

C        2.1200496134   -2.9628667363    0.8077642764
C        1.0734938054   -2.0426705715    0.9002504337
C        2.9596216924   -3.1692273116    1.9048964301
C        0.8578452998   -1.3431125841    2.0927729486
C        2.7462722840   -2.4634529699    3.0944104019
C       -0.2636135748   -4.0372386900    5.3840446134
C        0.1404162132   -5.3345066833    5.0587380983
C       -0.9881461826   -3.7171836061    3.1073747612
C        1.6814244415   -1.5556637811    3.2119421285
C       -0.8137225619   -3.2079306468    4.4022721857
C       -0.0031994424   -5.8305442746    3.7567481168
C       -0.5811373607   -5.0124939678    2.7696981910
C        1.4503236379   -0.8541780291    4.4870516315
C        0.2923686732   -0.6566461929    5.1360410143
O       -1.9499660633   -0.8557549809    3.6337040560
O       -2.1081052311   -1.4401640731    5.9996120658
S       -1.2801018072   -1.4855040878    4.7844351789
Cl       0.5378257649   -7.4527911569    3.3850975861
Cl      -0.7883747228   -5.5785023571    1.1261898693
H        2.2817932353   -3.5120048334   -0.1132253045
H        0.4260215680   -1.8693761834    0.0478566500
H        3.7748171784   -3.8805856704    1.8351796024
H        0.0491124521   -0.6215329979    2.1373784629
H        3.4027159618   -2.6421673980    3.9385895911
H       -0.1419012594   -3.6698640709    6.3993674725
H        0.5759528574   -5.9691194844    5.8212334026
H       -1.4323764560   -3.0922560687    2.3377254825
H        2.3446290310   -0.5216283923    5.0041356521
H        0.2665843218   -0.0297613142    6.0142553032
29   

C        2.0209846290   -2.9779177546    0.8329864515
C        1.1113940845   -1.9175482941    0.8655146291
C        2.7467453167   -3.3050867348    1.9815408920
C        0.9200584754   -1.1942870457    2.0480045003
C        2.5583409057   -2.5763704033    3.1613949956
C       -0.2694111303   -4.0090803555    5.3802665088
C        0.1551616636   -5.3037192155    5.0701551933
C       -0.9163640776   -3.6953500060    3.0791187123
C        1.6295380704   -1.5256280174    3.2132946678
C       -0.7917869237   -3.1844568194    4.3792858337
C        0.0573874189   -5.8026735483    3.7650361455
C       -0.4932203923   -4.9900305935    2.7581175872
C        1.4232965841   -0.7666093958    4.4665115469
C        0.2768085410   -0.6301812098    5.1448541026
O       -1.9034348294   -0.8369342369    3.5614489518
O       -2.1521470667   -1.4168480062    5.9238809204
S       -1.2795987399   -1.4626291759    4.7401603550
Cl       0.6222702613   -7.4213727297    3.4137056667
Cl      -0.6458691963   -5.5622115900    1.1106838312
H        2.1630016818   -3.5448271462   -0.0804663072
H        0.5500133060   -1.6554954955   -0.0244269433
H        3.4532293934   -4.1271341620    1.9587021572
H        0.2105850748   -0.3725337708    2.0587688163
H        3.1244309769   -2.8437928362    4.0464927083
H       -0.1835830101   -3.6396601265    6.3984940708
H        0.5705847841   -5.9342378086    5.8472037207
H       -1.3331658244   -3.0717742188    2.2931551618
H        2.3186966773   -0.3770077115    4.9399815311
H        0.2399718529   -0.0296204937    6.0407816385
29   

C        1.9874176144   -3.0003513896    0.8745150546
C        1.1729493854   -1.8650581477    0.8371463918
C        2.6058762213   -3.3719568938    2.0715385616
C        0.9729124730   -1.1076883991    1.9966991920
C        2.4057449543   -2.6112978387    3.2290355691
C       -0.2600924504   -4.0229841915    5.3990052530
C        0.1633921556   -5.3144602848    5.0735829521
C       -0.9072013213   -3.6820009790    3.1013468264
C        1.5741603006   -1.4811642216    3.2071219398
C       -0.7828979058   -3.1866553070    4.4077814717
C        0.0622172178   -5.7991741209    3.7633054156
C       -0.4887845473   -4.9748272381    2.7661611498
C        1.3733435136   -0.6667190348    4.4319323276
C        0.2687478577   -0.6225120063    5.1838498702
O       -1.9159930452   -0.8425010742    3.6172683568
O       -2.1440977594   -1.4425488655    5.9781369364
S       -1.2798098211   -1.4713237710    4.7877111043
Cl       0.6240700632   -7.4147798056    3.3932060090
Cl      -0.6474367954   -5.5303746404    1.1135211654
H        2.1375075200   -3.5919975893   -0.0218067245
H        0.6924350002   -1.5713469283   -0.0894624940
H        3.2373270803   -4.2526645842    2.1035659057
H        0.3339067635   -0.2306893781    1.9593024275
H        2.8886775322   -2.9101203987    4.1525199426
H       -0.1740887832   -3.6657590079    6.4215722182
H        0.5792669875   -5.9543170981    5.8427794018
H       -1.3212005746   -3.0477874024    2.3223186439
H        2.2515846956   -0.1575648899    4.8155738810
H        0.2458649535   -0.0465845274    6.0961996747
29   

C        2.0008782640   -3.1045979257    0.9056339697
C        1.2681994745   -1.9229038663    0.7620575648
C        2.5022279802   -3.4623485929    2.1601607072
C        1.0360326527   -1.1028048521    1.8720927091
C        2.2661488126   -2.6412728080    3.2684747847
C       -0.2207352339   -4.0657482369    5.3690325645
C        0.1883899287   -5.3473683698    4.9895395134
C       -0.9545803325   -3.6573843940    3.1082352691
C        1.5203713477   -1.4595771127    3.1377556883
C       -0.7797992361   -3.2005961124    4.4230960564
C        0.0354105725   -5.7937289204    3.6705207089
C       -0.5527785537   -4.9405686395    2.7199206054
C        1.2976309745   -0.5725293548    4.3104135501
C        0.2614730286   -0.5972849427    5.1532333188
O       -2.0314675124   -0.8788825339    3.7707719784
O       -2.0448360073   -1.5168685679    6.1299564855
S       -1.2802176770   -1.5036126648    4.8727564001
Cl       0.5799877413   -7.3979501214    3.2316130099
Cl      -0.7778275355   -5.4482044344    1.0595488840
H        2.1776564656   -3.7431527144    0.0471617894
H        0.8778778933   -1.6413492320   -0.2095848465
H        3.0696778765   -4.3789639534    2.2750754253
H        0.4636492773   -0.1884363623    1.7525359265
H        2.6586199235   -2.9279752440    4.2375457184
H       -0.0985187061   -3.7398044500    6.3984290487
H        0.6316860168   -6.0103085736    5.7230886625
H       -1.3981193365   -3.0006728259    2.3648406951
H        2.1082885086    0.1095243957    4.5459245430
H        0.2687853464    0.0038678838    6.0494556111
29   

C        3.0349360698   -3.5152458908    2.1410921308
C        1.9431756098   -3.0684832676    1.3899589284
C        3.3210253917   -2.9209125541    3.3742499497
C        1.1432099450   -2.0243885056    1.8682491589
C        2.5189017980   -1.8790041197    3.8530743361
C        0.1962007995   -4.2880834687    4.3855043129
C        0.1131050218   -5.3007932081    3.4293551778
C       -1.8098592534   -3.2957256161    3.4888044902
C        1.4311536507   -1.4136391991    3.0994111207
C       -0.7574985068   -3.2649358849    4.4139099073
C       -0.9187113417   -5.3152775049    2.4845605462
C       -1.8957818366   -4.3026303756    2.5177150518
C        0.5522199119   -0.3315478905    3.6110391879
C       -0.3455938780   -0.4263983433    4.5971876953
O       -1.8624942826   -1.7344609173    6.3626949202
O        0.5498775216   -2.1141403777    6.5033450253
S       -0.6061241173   -1.8994495985    5.6153834022
Cl      -0.9669135980   -6.5848991830    1.2811162349
Cl      -3.2067049225   -4.2720300092    1.3584986825
H        3.6560492614   -4.3227401618    1.7696804905
H        1.7125278743   -3.5338514692    0.4381966980
H        4.1627799483   -3.2672202341    3.9635582059
H        0.2923887067   -1.6936197172    1.2829769821
H        2.7382975133   -1.4320134907    4.8179325824
H        1.0161156393   -4.2854366806    5.0993808722
H        0.8654173081   -6.0800753910    3.4099724601
H       -2.5686226175   -2.5192156443    3.5088611429
H        0.5569706901    0.5917424776    3.0406828205
H       -0.9805478191    0.4101057786    4.8458347743
29   

C        3.0799949155   -3.5025375438    2.1267462242
C        2.0582946124   -3.0169431985    1.3050049596
C        3.2537511271   -2.9708294528    3.4080229348
C        1.2137728298   -1.9989771614    1.7625588275
C        2.4052086826   -1.9575779217    3.8675262908
C        0.1762329240   -4.3086853598    4.4129489072
C        0.0872422881   -5.3169430062    3.4526815893
C       -1.8240545961   -3.3015061548    3.5205481112
C        1.3783338008   -1.4600618123    3.0493728685
C       -0.7699363210   -3.2786387079    4.4436098371
C       -0.9458494370   -5.3226611896    2.5091314519
C       -1.9178983321   -4.3054951659    2.5475920609
C        0.4625115355   -0.3997601923    3.5265953024
C       -0.3440239897   -0.4472087316    4.5943177991
O       -1.8525506112   -1.7263926212    6.3892528850
O        0.5579058829   -2.1186798045    6.5177928154
S       -0.6024484089   -1.9061353824    5.6350505620
Cl      -1.0024210068   -6.5875342207    1.3010866537
Cl      -3.2314476256   -4.2645101064    1.3916937756
H        3.7366568237   -4.2885580312    1.7707137469
H        1.9184786559   -3.4303074967    0.3124490065
H        4.0460253990   -3.3414625514    4.0489020561
H        0.4208685980   -1.6361609524    1.1179697553
H        2.5486009822   -1.5534889742    4.8650154098
H        0.9965808377   -4.3135234853    5.1262522374
H        0.8355895980   -6.0999254608    3.4290038699
H       -2.5771259448   -2.5195451528    3.5426515897
H        0.3552190798    0.4620827611    2.8758102737
H       -0.9511500396    0.4044032274    4.8607162088
29   

C        3.1689465087   -3.4158309655    2.0462332556
C        2.2470920403   -2.8246831810    1.1776742727
C        3.2050532306   -3.0293510061    3.3887706289
C        1.3589735640   -1.8526162543    1.6520216687
C        2.3131693156   -2.0620431787    3.8646471126
C        0.1131416242   -4.3359748742    4.4587772570
C        0.0098292499   -5.3603557432    3.5171265620
C       -1.8622980927   -3.3077831332    3.5357798744
C        1.3698433411   -1.4732091673    3.0057975980
C       -0.8131282506   -3.2874401815    4.4642719341
C       -1.0200165376   -5.3657352820    2.5698380250
C       -1.9721245360   -4.3293299992    2.5833502172
C        0.4228466449   -0.4465999240    3.4780043970
C       -0.3341251942   -0.4599271462    4.5854622072
O       -1.8963330210   -1.6879744550    6.3685875220
O        0.4997051283   -2.1272792817    6.5482458922
S       -0.6372526097   -1.9021024527    5.6388845085
Cl      -1.0996640859   -6.6563198334    1.3905746315
Cl      -3.2826221521   -4.2881768826    1.4239712976
H        3.8593390506   -4.1664076756    1.6776869297
H        2.2203539864   -3.1191579336    0.1345264970
H        3.9283134329   -3.4733890770    4.0636660441
H        0.6486215238   -1.4046811173    0.9660173419
H        2.3708087455   -1.7594040854    4.9048914913
H        0.9269519482   -4.3457247531    5.1794718766
H        0.7418355259   -6.1590504038    3.5129968882
H       -2.6012762786   -2.5121736599    3.5400051375
H        0.2611990439    0.3873903697    2.8025818809
H       -0.9102381492    0.4109998160    4.8584912098
29   

C        3.2150492446   -3.2063822248    1.8146982608
C        2.4537222914   -2.3918973388    0.9729653123
C        3.0626786651   -3.1068686935    3.1996480795
C        1.5313385569   -1.4898784386    1.5150425883
C        2.1396933791   -2.2064748621    3.7427216152
C       -0.0128552911   -4.4295136467    4.7469969615
C       -0.0996696692   -5.5370012157    3.9023135144
C       -1.7679407882   -3.3538794415    3.4915067362
C        1.3408195966   -1.4058988107    2.9079785998
C       -0.8395069687   -3.3194419994    4.5406057395
C       -1.0113847037   -5.5630457573    2.8408222289
C       -1.8582889203   -4.4581898026    2.6345058549
C        0.3671113208   -0.4334560458    3.4188229611
C       -0.4028945394   -0.4581983779    4.5205270722
O       -1.9937776858   -1.6287038396    6.3119731420
O        0.3923038047   -2.0198713266    6.5865670776
S       -0.7132748368   -1.8592906138    5.6265417440
Cl      -1.0804052248   -6.9666548717    1.7977441256
Cl      -3.0189949680   -4.4383424254    1.3245995272
H        3.9300855754   -3.9052253303    1.3949597385
H        2.5783692444   -2.4589339932   -0.1020018506
H        3.6684371490   -3.7199633239    3.8573714445
H        0.9505182886   -0.8668315322    0.8439728603
H        2.0778736601   -2.1218381719    4.8199869762
H        0.7024155029   -4.4298705619    5.5658660393
H        0.5480174980   -6.3896792718    4.0679402384
H       -2.4306237905   -2.5095437730    3.3285086182
H        0.2042641049    0.4250071379    2.7749844985
H       -0.9893702241    0.4122869957    4.7728653632
29   

C        3.4620708622   -3.0065233069    1.7369229747
C        2.7925324295   -2.0836190051    0.9314268310
C        3.1263360738   -3.1172965881    3.0875082485
C        1.7791146221   -1.2848498101    1.4726140760
C        2.1128952109   -2.3193097058    3.6298265439
C       -0.0948378549   -4.4990427187    4.8131096979
C       -0.2639739695   -5.6467842300    4.0369149814
C       -1.8964631543   -3.4403531339    3.6100248157
C        1.4007154955   -1.4117926201    2.8253416686
C       -0.9041048514   -3.3777304402    4.5976838186
C       -1.2427236010   -5.7030264471    3.0378494344
C       -2.0710549399   -4.5858850697    2.8232694789
C        0.3485800079   -0.5186111927    3.3172241204
C       -0.4185660792   -0.5318434065    4.4236353826
O       -1.9391842238   -1.5880225383    6.3384554373
O        0.4474114403   -2.0146355438    6.5273896961
S       -0.6950289824   -1.8740289757    5.6085685014
Cl      -1.4191403646   -7.1597830314    2.0840025704
Cl      -3.3156209506   -4.6031961342    1.5925689568
H        4.2484249138   -3.6252329702    1.3189251455
H        3.0600570093   -1.9848848093   -0.1146524666
H        3.6620939712   -3.8133861009    3.7230008951
H        1.2775889159   -0.5739743796    0.8253130539
H        1.9268665840   -2.4022729258    4.6894619545
H        0.6660125251   -4.4803576751    5.5896449127
H        0.3683811677   -6.5095540455    4.2098811478
H       -2.5484908808   -2.5881556936    3.4441825023
H        0.1412864751    0.3219394711    2.6626947621
H       -1.0366737956    0.3280665447    4.6336440960
29   

C        2.4745839020   -3.0687439187    0.1960149553
C        3.2869201945   -2.1549218976    0.8681618969
C        1.1476595668   -3.2354087653    0.5942750871
C        2.7752897848   -1.4186723338    1.9424313075
C        0.6346480100   -2.4991535309    1.6680051209
C       -0.3630711194   -3.5505177702    5.8165725859
C        0.0838948617   -4.8344075838    6.1365614129
C       -1.3061742404   -4.4104931485    3.7710086264
C        1.4434006004   -1.5927882359    2.3768946470
C       -1.0500733109   -3.3227616860    4.6195262957
C       -0.1506970859   -5.9149709040    5.2778125138
C       -0.8579167567   -5.7002549826    4.0808558959
C        1.0039482807   -0.7582949509    3.4965637351
C       -0.1472019334   -0.6230432418    4.1848405518
O       -2.3127491394   -1.6416312329    2.8825434714
O       -2.5232242986   -1.1545109850    5.2592967799
S       -1.6402239717   -1.6491597360    4.1922130603
Cl       0.4321686277   -7.5067175171    5.7137110937
Cl      -1.1892023777   -7.0154254036    2.9742225608
H        2.8683868554   -3.6395667811   -0.6376348790
H        4.3153580893   -2.0141953251    0.5550495953
H        0.5068893315   -3.9304661887    0.0631633439
H        3.4317993528   -0.7137034927    2.4401332479
H       -0.4045729396   -2.6437591210    1.9028609142
H       -0.1778338727   -2.7289822009    6.5031785488
H        0.6186132672   -5.0021664870    7.0640683923
H       -1.8675374244   -4.2607792474    2.8527083147
H        1.7612129622   -0.0578196310    3.8333892395
H       -0.2240036989    0.1910018182    4.8898404448
