48

C     -3.75355   -0.36631    7.21345
C     -3.74060   -1.63254    6.69117
C     -1.58280   -0.46978    6.78005
C      1.41025    0.39459    2.31142
C      2.03709   -2.36525    2.87980
C      0.89090   -1.72154    3.65011
C      2.18939    0.25065    4.68282
C      0.91195    0.78440   -0.70061
C      3.33431    1.04615   -0.07392
C      2.00101   -1.89052    1.43447
C      1.50992    1.32951    5.55867
C     -0.20749    0.52066    4.26732
C      1.30582    1.25210   -2.10499
C      3.57880    1.50506   -1.51465
C      2.11941    0.10812   -0.03578
C      1.06479   -0.19647    3.68902
C     -0.13750   -0.06403    6.67670
N     -2.53738    0.27692    7.26157
N      1.84038   -0.43577    1.31040
N      0.09189    0.95237    5.64003
O      1.33134    1.61804    2.14395
O      2.42969    2.12950   -2.08221
S     -2.12526   -2.05205    6.23123
H     -4.63785    0.14067    7.58490
H     -4.56664   -2.31997    6.56468
H      2.99553   -2.09537    3.33813
H      1.96654   -3.45817    2.89296
H     -0.05964   -1.97474    3.16270
H      0.83295   -2.11782    4.66889
H      3.07392    0.64063    4.17370
H      2.50934   -0.60363    5.28959
H      0.59481    1.63979   -0.10252
H      0.07329    0.08016   -0.76834
H      4.22485    0.52778    0.30340
H      3.14307    1.91036    0.56467
H      2.93026   -2.17222    0.92621
H      1.17966   -2.39120    0.90007
H      1.95086    1.42510    6.55508
H      1.57665    2.29985    5.05778
H     -0.40540    1.41428    3.67313
H     -1.09230   -0.11747    4.23672
H      1.53091    0.38305   -2.74786
H      0.49261    1.81466   -2.57081
H      4.37910    2.24840   -1.55742
H      3.87768    0.64634   -2.14119
H      2.36670   -0.76975   -0.64561
H      0.14435    0.38216    7.63545
H      0.47340   -0.97480    6.55354
