41

C      2.29068   -5.81940    6.47269
C      2.73930   -7.09627    6.08019
C      2.37399   -2.12234   -0.80155
C      1.95935   -4.84175    5.53046
C      2.87274   -7.43686    4.72932
C      1.65131   -0.95856   -1.06627
C      0.70054   -2.03532   -3.02884
C      2.27526   -3.25892   -1.62285
C      2.08379   -5.16501    4.17408
C      2.53451   -6.45627    3.79591
C      1.43961   -3.19157   -2.75382
C      0.81110   -0.93541   -2.18144
C      2.12429   -5.19175    2.03025
C      3.04039   -4.49585   -1.29645
C      4.01627   -5.03051   -2.31527
C      3.31129   -5.67030   -3.52433
C      2.43501   -4.71087   -4.32208
C      2.80616   -7.60198    1.54837
N      1.84664   -4.39246    3.03908
N      2.91563   -5.16762   -0.20290
N      2.53398   -6.45568    2.40072
N      1.94636   -4.81145    0.70602
O      1.26644   -4.25756   -3.60397
Br    -0.19512    0.64723   -2.57266
H      2.20302   -5.59230    7.53188
H      2.98966   -7.83131    6.84035
H      3.03690   -2.14707    0.06004
H      1.61484   -3.85649    5.83156
H      3.22701   -8.42058    4.43313
H      1.74037   -0.09259   -0.41940
H      0.05638   -2.02033   -3.90127
H      4.66503   -4.21580   -2.66216
H      4.64486   -5.77701   -1.82271
H      4.06939   -6.07245   -4.20843
H      2.69808   -6.51320   -3.18708
H      3.00982   -3.83731   -4.65609
H      2.03367   -5.21464   -5.20485
H      2.51569   -8.51009    2.08240
H      2.22038   -7.52604    0.63296
H      3.86530   -7.65920    1.28017
H      1.51832   -3.88977    0.62860
