41

C     -8.99823    4.58280   -6.05300
C     -7.87204    4.24328   -5.30280
C     -2.13142    2.36522    0.45050
C     -0.92481    2.70167    1.05929
C     -1.71225    3.80686   -2.96014
C     -0.17238    3.79273   -0.98276
C     -6.47196    5.06864   -7.09750
C     -1.39309    3.45866   -1.60841
C     -2.91821    3.50414   -3.54689
C     -8.89369    5.16305   -7.32284
C     -7.60319    5.40502   -7.84564
C     -6.59550    4.48669   -5.82689
C     -2.35475    2.74953   -0.87197
C      0.04385    3.41518    0.33346
C     -3.88497    2.72454   -2.74797
C     -3.15625    3.88908   -4.96030
C    -10.13281    5.51954   -8.11037
C     -7.43728    6.02802   -9.21263
C     -1.91684    4.08729   -5.81625
N     -4.26280    4.18251   -5.58367
N     -5.47891    4.16464   -5.03914
O     -4.96506    2.29947   -3.12526
O     -3.54558    2.40903   -1.44593
Br     1.69523    3.87343    1.18827
H     -9.98436    4.38700   -5.63753
H     -7.98155    3.78899   -4.32057
H     -2.89872    1.81426    0.98512
H     -0.73346    2.41541    2.08793
H     -0.95887    4.34251   -3.52738
H      0.58359    4.34226   -1.53507
H     -5.47862    5.25038   -7.49289
H    -10.17515    6.59148   -8.33891
H    -10.17081    4.98981   -9.07010
H    -11.03847    5.26271   -7.55406
H     -7.90505    5.41467   -9.99187
H     -7.90882    7.01669   -9.26242
H     -6.38127    6.14673   -9.46828
H     -1.22030    3.24616   -5.72753
H     -2.22396    4.18386   -6.85791
H     -1.36904    5.00120   -5.55065
H     -5.63897    3.58541   -4.21332
