49

C     -0.75657    3.40763    2.27015
C     -1.32623    3.50322   -0.06564
C     -2.58130   -0.35878    0.22329
C     -3.45943    2.26498   -1.95259
C     -2.98315   -0.22104   -2.33422
C     -2.78193    3.63727   -1.98604
C     -4.02764   -1.31140    1.95802
C     -3.74304   -2.58782   -0.10307
C     -5.54178   -1.42128    1.79440
C     -5.26532   -2.68391   -0.23325
C     -0.56998    2.67262   -2.26101
C     -1.96834   -0.49231   -1.18759
C     -2.66167    1.22189   -2.75899
C     -1.14624    1.27364   -2.49298
C     -0.16500    3.21589    3.63125
C     -7.34421   -2.81382    0.98276
N     -1.95683    3.84896    2.05125
N     -2.29454    3.90586    0.72073
N     -1.41972    3.52933   -1.44296
N     -3.37170   -1.39602    0.65291
N     -5.89845   -2.65174    1.08268
O     -2.36897    0.63333    0.91401
O     -0.93019    0.46986   -1.32786
S      0.12311    3.00484    0.79605
H     -3.53848    1.96499   -0.90480
H     -4.47776    2.33085   -2.35398
H     -2.80492   -0.91805   -3.15972
H     -4.02235   -0.33470   -2.01601
H     -2.69575    4.01531   -3.01251
H     -3.33611    4.36435   -1.39401
H     -3.75065   -0.36145    2.41361
H     -3.66721   -2.13221    2.59143
H     -3.37410   -3.47653    0.42634
H     -3.29362   -2.57797   -1.09435
H     -6.01088   -1.44049    2.78385
H     -5.91384   -0.52342    1.26410
H     -5.62534   -1.85743   -0.87876
H     -5.52411   -3.62723   -0.72729
H      0.42421    2.58653   -1.81702
H     -0.44646    3.15986   -3.23619
H     -1.52229   -1.48856   -1.28968
H     -2.85049    1.36821   -3.82851
H     -0.60947    0.82293   -3.34432
H      0.05365    2.15930    3.82043
H      0.76597    3.78020    3.75149
H     -0.88715    3.56337    4.37323
H     -7.78192   -2.83362    1.98572
H     -7.57686   -3.76454    0.49208
H     -7.83127   -2.00155    0.41076
