22

C      0.46339   -1.30383    5.24836
C      1.17803   -1.26669    4.00465
C      1.00255   -2.21103    6.11098
C      2.24591   -2.13360    3.95384
C     -1.22833   -4.51895    0.75680
C     -0.77663   -2.33652    1.64233
C     -1.77431   -5.78316    0.17197
N     -0.00591   -4.36845    1.16732
N      0.25926   -3.12219    1.68450
N     -0.77079   -1.01993    2.07579
O      1.61391   -0.12913    1.65452
O      0.00046    0.97307    3.30426
S      2.39397   -3.03090    5.44145
S     -2.21805   -3.06400    0.95148
S      0.61063   -0.20899    2.69800
Cl     0.47144   -2.56539    7.71611
Cl     3.36552   -2.43233    2.69829
H     -0.38135   -0.66546    5.47782
H     -2.60923   -6.16773    0.76642
H     -2.13145   -5.62617   -0.85072
H     -0.97681   -6.52837    0.15762
H     -1.63785   -0.59871    2.39409
