22

C      1.67849    2.16096    1.81694
C      1.75511    0.73320    1.73497
C      2.49571    2.64878    2.79619
C      2.62154    0.17445    2.64302
C     -0.54844   -4.85717    0.81794
C     -0.40896   -2.50956    1.21750
C     -0.36933   -6.30356    0.47666
N     -1.69138   -4.32655    1.14709
N     -1.61827   -2.97342    1.37429
N     -0.11851   -1.17642    1.54629
O      1.70449   -1.06613   -0.22539
O     -0.04652    0.79666   -0.13843
S      3.37200    1.38970    3.63713
S      0.78029   -3.70319    0.75969
S      0.82404   -0.17424    0.51930
Cl     2.71980    4.30107    3.23896
Cl     2.98312   -1.48714    2.87964
H      1.04898    2.76511    1.17491
H     -0.01990   -6.42594   -0.55357
H      0.35870   -6.78290    1.13877
H     -1.33210   -6.80648    0.58503
H     -0.97306   -0.69460    1.83292
