35

C      1.26598   -1.79102   -1.10492
C      1.09053   -3.18626   -1.11868
C      0.20421   -6.76211   -8.41420
C     -0.10002   -7.36841   -6.09559
C      0.84203   -1.00168   -2.17540
C     -0.69750   -5.70810   -8.26696
C     -1.00275   -6.32015   -5.92533
C      0.51545   -7.60524   -7.33536
C      0.48875   -3.84510   -2.19373
C      0.05851   -3.05427   -3.27580
C      0.23692   -1.65130   -3.25315
C     -1.28742   -5.50067   -7.01882
C     -0.83172   -2.60554   -5.24891
C      1.46758   -8.76368   -7.51173
C      0.29180   -5.33932   -2.22868
N     -0.54397   -3.55771   -4.42349
N     -1.41143   -2.80876   -6.49154
O     -3.29844   -4.42732   -5.67651
O     -2.99276   -3.78606   -8.12998
S     -0.40631   -0.95469   -4.73783
S     -2.44228   -4.15852   -6.82521
H      1.73771   -1.31852   -0.24778
H      1.43263   -3.77050   -0.26781
H      0.66904   -6.93371   -9.38199
H      0.13152   -8.01196   -5.25010
H      0.97708    0.07573   -2.16370
H     -0.95000   -5.06389   -9.10323
H     -1.47087   -6.12465   -4.96817
H      0.91690   -9.68146   -7.75040
H      2.17357   -8.58169   -8.32667
H      2.03939   -8.95288   -6.59868
H     -0.77114   -5.58914   -2.31470
H      0.79346   -5.77784   -3.09795
H      0.68581   -5.80981   -1.32399
H     -1.70227   -1.99761   -7.03119
