40

C      1.37641   -1.05437    0.01486
C      0.07529   -0.83930    0.48451
C      2.20536   -1.96365    0.67247
C     -0.37686   -1.53656    1.60509
C      5.03708   -3.61644    8.72703
C      4.31168   -3.94387    7.58363
C      2.70359   -2.12338    7.93816
C      1.75774   -2.66911    1.79903
C      0.45221   -2.44926    2.27071
C      4.59347   -2.52962    9.48524
C      3.16081   -3.21763    7.18346
C      3.45404   -1.82895    9.06733
C      4.26056   -0.96652   10.90433
C      1.37660   -3.16816    5.41223
C      2.68188   -3.64619    2.50359
C     -0.08814   -3.20026    3.47814
C      1.88335   -4.59626    3.39945
C      4.28254    0.00526   12.02968
N      5.07733   -1.94475   10.66392
N      0.96915   -3.84218    4.26035
N      2.53441   -3.65598    5.99669
O      0.72939   -2.23599    5.88977
O      3.23620   -0.81967    9.98076
H      1.74064   -0.51654   -0.85661
H     -0.57810   -0.12933   -0.01589
H      3.21668   -2.13386    0.30756
H     -1.38489   -1.36446    1.97787
H      5.91479   -4.18537    9.01783
H      4.63761   -4.78573    6.97568
H      1.82589   -1.56511    7.64626
H      3.25884   -4.21827    1.76776
H      3.40586   -3.09460    3.11719
H     -0.62886   -2.52286    4.13742
H     -0.78914   -3.97801    3.14711
H      1.26546   -5.25984    2.78468
H      2.53623   -5.25597    3.97627
H      4.37580    1.02948   11.65404
H      3.35491   -0.05276   12.60840
H      5.12876   -0.22018   12.67907
H      2.95439   -4.47698    5.58877
