39

C     -1.03368   -1.75039    0.04217
C     -1.70955   -0.65959    0.58303
C      2.24592   -2.32374    3.12841
C      0.11622   -1.54270   -0.71862
C      2.17125   -0.95199    2.90152
C      2.95877   -2.68013    0.86939
C     -1.26073    0.65339    0.37150
C      2.64838   -3.21471    2.12085
C      0.61174   -0.25005   -0.91473
C     -0.08787    0.85272   -0.38565
C      2.49878   -0.42235    1.64864
C      2.88143   -1.30328    0.62780
C     -2.06947    1.74791    1.02309
C      1.93409    1.30052   -2.23387
C      1.62677    2.37603   -1.20997
C      2.74186   -4.69923    2.38707
N      1.81544   -0.03224   -1.63072
O     -3.02821    1.50132    1.72819
O      4.28277    0.32804   -1.01453
O      3.53560   -1.95133   -1.82130
O      0.32901    2.14575   -0.60578
O      2.42689    0.91577    1.38460
O     -1.69303    3.03004    0.81362
S      3.28369   -0.74482   -1.03311
H     -1.40297   -2.75869    0.20211
H     -2.60723   -0.78852    1.17811
H      1.98172   -2.70880    4.11068
H      0.65138   -2.37489   -1.16545
H      1.85054   -0.28282    3.69785
H      3.25395   -3.32674    0.04942
H      1.22956    1.33799   -3.07072
H      2.94202    1.44116   -2.62316
H      2.38312    2.37646   -0.42531
H      1.55509    3.36428   -1.66880
H      1.82042   -5.07960    2.84017
H      2.91959   -5.25801    1.46480
H      3.56330   -4.92490    3.07640
H      2.04454    1.37145    2.15215
H     -0.90858    3.05153    0.22610
