41

C      6.15523   -5.64155    6.32770
C      5.48869   -4.61759    7.02914
C      1.62088   -1.67072   -0.12702
C      5.98810   -5.81036    4.94997
C      4.63235   -3.72515    6.37300
C      1.19701   -0.34397   -0.20210
C      3.15945    0.16823   -1.54382
C      2.80801   -2.10971   -0.73936
C      5.13357   -4.92994    4.27637
C      4.46942   -3.90586    4.99960
C      3.56303   -1.17150   -1.47157
C      1.98850    0.56734   -0.90535
C      3.97188   -3.85237    2.83784
C      3.25172   -3.52632   -0.58813
C      3.48058   -4.35663   -1.82635
C      4.74282   -3.92824   -2.59338
C      4.70236   -2.49969   -3.12191
C      2.78084   -2.14103    4.30447
N      4.80628   -4.86014    2.92319
N      3.48507   -4.09876    0.54267
N      3.70506   -3.22927    4.05030
N      3.32857   -3.37638    1.69754
O      4.74622   -1.48984   -2.08725
Br     1.44953    2.40331   -1.00659
H      6.81515   -6.31212    6.87182
H      5.64393   -4.51488    8.09973
H      1.01957   -2.39078    0.42194
H      6.50296   -6.59784    4.40699
H      4.12756   -2.93143    6.91773
H      0.27603   -0.02659    0.27513
H      3.77302    0.86887   -2.09959
H      3.57953   -5.39907   -1.51460
H      2.60789   -4.27871   -2.48836
H      5.62050   -4.04704   -1.94920
H      4.87910   -4.59348   -3.45546
H      5.58678   -2.29739   -3.73065
H      3.81187   -2.33275   -3.74185
H      3.27998   -1.16462    4.28393
H      1.98522   -2.15294    3.55584
H      2.32235   -2.27814    5.28711
H      3.29410   -2.36066    1.60691
