40

C      1.76223   -0.55005    0.39294
C      0.36704   -0.47212    0.47748
C      2.44614   -1.50412    1.14686
C     -0.32288   -1.34904    1.31495
C      1.12438   -2.49392    9.51914
C      0.85493   -2.73430    8.17042
C      2.64522   -4.40950    8.04679
C      1.75970   -2.38981    1.99037
C      0.35926   -2.30768    2.07600
C      2.15298   -3.20869   10.13612
C      1.60478   -3.68272    7.43381
C      2.87998   -4.14171    9.38496
C      3.61437   -4.07245   11.43957
C      0.39540   -3.44624    5.23417
C      2.52693   -3.41376    2.80766
C     -0.43537   -3.25504    2.96213
C      1.59357   -4.52500    3.29426
C      4.50578   -4.48476   12.55603
N      2.65821   -3.19878   11.44542
N      0.40618   -3.95425    3.93395
N      1.38363   -3.95248    6.06495
O     -0.45381   -2.64061    5.61371
O      3.82386   -4.70277   10.21680
H      2.31112    0.12818   -0.25520
H     -0.17674    0.27052   -0.10057
H      3.53079   -1.56797    1.08095
H     -1.40685   -1.28447    1.38941
H      0.54242   -1.76472   10.07475
H      0.06273   -2.19966    7.66711
H      3.23336   -5.14238    7.50024
H      3.34138   -3.84032    2.21071
H      2.98937   -2.92475    3.67483
H     -1.20096   -2.71020    3.51250
H     -0.93959   -4.00729    2.34097
H      1.24125   -5.11680    2.44231
H      2.10922   -5.23325    3.94762
H      4.39978   -5.55512   12.76118
H      5.55463   -4.29683   12.30403
H      4.24203   -3.91833   13.44942
H      1.98234   -4.67001    5.68615
