24

C      4.14980    1.01602   -5.18600
C      3.80043    0.26632   -4.10026
C      5.37185   -1.14369   -4.87194
C      2.15019   -0.73047   -2.56720
C      1.48327   -2.86684   -3.34488
C      6.22142   -3.06267   -2.43572
C      2.71694    0.57991   -3.09192
N      4.48613   -0.91131   -3.91282
N      6.20296   -2.17699   -5.06461
O      2.21640   -1.10206   -1.40863
O      7.04710   -4.46943   -4.51467
O      4.57282   -4.05346   -4.24858
O      1.58065   -1.44112   -3.56308
S      5.42576    0.19980   -6.07743
S      5.96044   -3.52729   -4.17378
H      3.73326    1.95888   -5.51728
H      0.85326   -3.24201   -4.15322
H      1.03128   -3.07942   -2.37294
H      2.48594   -3.29804   -3.41873
H      6.09894   -3.97290   -1.84421
H      7.23798   -2.67587   -2.34099
H      5.47929   -2.31078   -2.16759
H      3.10837    1.12795   -2.23001
H      1.92394    1.17439   -3.55730
