25

C      1.55780    1.06053    2.90545
C      1.22695   -0.02527    2.17471
C      3.56400   -0.26759    2.16477
C     -1.32645    0.20649    2.22643
C     -3.69100    0.19478    2.19573
C      6.25523   -2.93111    1.89868
C     -0.10727   -0.55580    1.73987
N      4.77017   -0.73251    1.96400
N      2.35049   -0.74845    1.75776
O     -1.33464    1.23140    2.87811
O      3.76371   -2.91317    0.96179
O      5.54438   -1.64488   -0.31075
O     -2.44347   -0.42972    1.81461
S      3.30103    1.20512    3.09908
S      4.98300   -2.05798    0.97916
H      0.88144    1.78534    3.32969
H     -4.47052   -0.44306    1.78092
H     -3.75213    1.20240    1.77914
H     -3.77071    0.24648    3.28365
H      6.52339   -3.80607    1.30421
H      7.10762   -2.26128    2.01162
H      5.84905   -3.22379    2.86682
H     -0.22097   -1.59835    2.06106
H     -0.15785   -0.58510    0.64408
H      2.33066   -1.66022    1.29427
