24

C      4.01420    1.55727   -4.70610
C      3.61050    0.43543   -4.04032
C      5.81532    0.06717   -3.82096
C      2.11004   -0.27420   -2.24761
C      2.92502   -1.90186   -0.72545
C      6.19022   -3.07446   -3.34187
C      2.17810    0.05193   -3.73061
N      4.59903   -0.39464   -3.56657
N      7.01989   -0.43716   -3.52015
O      1.89210    0.54007   -1.36811
O      6.36338   -1.51031   -1.21972
O      8.48742   -2.14501   -2.42376
O      2.38768   -1.57831   -2.02804
S      5.77004    1.61538   -4.75079
S      7.07384   -1.72107   -2.50663
H      3.40376    2.34497   -5.12872
H      2.84172   -2.98645   -0.63371
H      2.35611   -1.40408    0.06299
H      3.97702   -1.60162   -0.70552
H      6.25662   -3.94545   -2.68566
H      5.15603   -2.76301   -3.49005
H      6.69242   -3.26914   -4.29157
H      1.50268    0.88068   -3.95134
H      1.88767   -0.83133   -4.30958
