22

C     -0.18931    0.17870    1.55494
C     -0.23374   -0.86139   -0.68578
C     -0.02429   -1.15746    0.81409
C     -0.96051   -2.24896    1.33319
C      1.49186    2.91958    2.03919
N      0.55629    1.15575    0.74559
N      0.45812    2.52022    1.08636
O      1.13723    1.23250   -1.81258
O     -1.27442    1.58195   -1.08979
S      0.03384    0.93399   -0.90155
H     -1.25230    0.45712    1.65060
H      0.25331    0.13427    2.55334
H      0.46341   -1.38800   -1.33771
H     -1.26056   -1.04199   -1.00859
H      1.01478   -1.47076    0.95283
H     -2.00924   -1.95721    1.21073
H     -0.78341   -2.44007    2.39708
H     -0.80619   -3.18937    0.79441
H      2.46966    2.77765    1.57451
H      1.46681    2.36288    2.98944
H      1.35828    3.98389    2.25420
H     -0.48303    2.74205    1.41523
