25

C      4.30435    0.94439   -5.62433
C      3.82850    0.57806   -4.39536
C      5.80513   -0.41356   -4.27005
C      1.57573   -0.35216   -3.97132
C      1.07781   -2.45698   -3.02467
C      5.74558   -2.40381   -1.53078
C      2.45723    0.88557   -3.85441
N      4.69644   -0.17682   -3.63007
N      6.82460   -1.19873   -3.72539
O      0.82780   -0.57654   -4.90216
O      5.35419   -3.37034   -3.97004
O      7.72085   -3.44147   -3.02341
O      1.76186   -1.18784   -2.92843
S      5.89223    0.27825   -5.88183
S      6.41627   -2.78917   -3.15109
H      3.82546    1.55310   -6.37960
H      1.32994   -2.99165   -2.10933
H      1.43216   -3.00620   -3.89950
H     -0.00096   -2.30417   -3.10005
H      5.45921   -3.35921   -1.08684
H      6.52759   -1.91648   -0.94905
H      4.88356   -1.75317   -1.67975
H      2.53693    1.18565   -2.80663
H      1.98928    1.68189   -4.43379
H      7.69332   -1.25589   -4.25357
