24

C      3.99765    1.08973   -5.64538
C      3.60596    0.55377   -4.45358
C      5.44096   -0.72049   -4.69175
C      2.68597    1.41307   -2.25287
C      4.14674    2.64825   -0.87724
C      8.74156   -0.36007   -4.46392
C      2.38726    0.96773   -3.67367
N      4.39508   -0.44036   -3.92613
N      6.35120   -1.65667   -4.36382
O      2.03762    1.09965   -1.26904
O      7.68136   -1.48338   -6.59871
O      8.45673   -2.97509   -4.70639
O      3.74708    2.25242   -2.19698
S      5.44720    0.29782   -6.21900
S      7.76506   -1.74463   -5.13704
H      3.52585    1.88853   -6.20499
H      5.02542    3.27991   -1.01551
H      4.39991    1.76963   -0.27845
H      3.34786    3.20406   -0.37695
H      9.72013   -0.37581   -4.94936
H      8.21989    0.57371   -4.68511
H      8.83807   -0.50759   -3.38712
H      1.88407    1.79828   -4.18284
H      1.67457    0.14279   -3.58717
