25   

C       -0.2394545848   -5.5681374139   -3.7790584791
C        0.0371696442   -4.7721853971   -2.5916559159
C       -0.4762091988   -4.7867473642   -4.8794522243
C       -0.0320744356   -1.0294297077   -1.8552106616
C        0.2404608229   -2.3720519471   -1.8595235012
C       -0.0001617853   -3.4173698093   -2.8393193816
C        0.4367672387   -0.5476013184   -0.5688651984
C       -2.2025693945   -0.3142752646   -2.9222604862
C        0.3307970993    0.8454421292   -0.0217313568
C       -0.6832570702   -0.1624553732   -2.9153015381
N        0.9374679680   -1.5381735583    0.1208474174
N        0.8188893528   -2.6537362351   -0.6506856914
O       -2.7561085910   -0.5384164751   -3.9863036026
O       -2.8670048019   -0.1639170771   -1.7486630080
S       -0.3707744533   -3.0698988982   -4.5109459257
H       -0.2590969817   -6.6526579962   -3.7915474184
H        0.2371217783   -5.2145181232   -1.6235390953
H       -0.7057020316   -5.1694994241   -5.8672812062
H       -0.5539613968    1.3487715106   -0.4195613765
H        0.2574788951    0.8139218729    1.0691785062
H        1.2215028918    1.4166055417   -0.2961438761
H       -0.2779034534   -0.3949024510   -3.9020402813
H       -0.4505392739    0.8884054838   -2.7297403666
H        1.1440010091   -3.5779749100   -0.3797189746
H       -3.8067507635   -0.3117061676   -1.9414175262
25   

C       -0.2555248046   -5.4380138519   -4.0003945189
C       -0.1126029449   -4.6790522589   -2.7661238530
C       -0.1104074886   -4.6471887832   -5.1106667144
C        0.0582133350   -1.0041052725   -1.9074920697
C        0.3398292724   -2.3406023283   -1.9612229066
C        0.1325320198   -3.3438956784   -2.9927386050
C        0.4917198499   -0.5759477953   -0.5902257013
C       -2.1106295982   -0.2647427642   -2.9049896735
C        0.3750194803    0.7945904583    0.0089255716
C       -0.5933417801   -0.1148992734   -2.9450578807
N        0.9684913854   -1.5968541750    0.0732782287
N        0.8747282051   -2.6797696321   -0.7478975860
O       -2.6548033719   -0.9382223642   -3.7645149947
O       -2.7859374359    0.4097590678   -1.9409656383
S        0.2027502305   -2.9659761450   -4.6950898536
H       -0.4583644410   -6.5029336146   -4.0377893127
H       -0.2070204734   -5.1233331656   -1.7824824221
H       -0.1834442681   -5.0033143410   -6.1317548240
H       -0.4737896147    1.3331051873   -0.4195748891
H        0.2349156603    0.7183531017    1.0910149332
H        1.2907061567    1.3590334559   -0.1853662369
H       -0.2231667778   -0.3445452403   -3.9457149128
H       -0.3418341802    0.9308587800   -2.7527646137
H        1.1987816872   -3.6150722449   -0.5141163809
H       -3.7244247475    0.1892801668   -2.0566514554
25   

C       -0.3044382156   -5.3574895524   -4.0030346782
C       -0.2513703716   -4.5822795009   -2.7714652616
C        0.1189661721   -4.6320533314   -5.0876485186
C        0.0848226470   -0.9704016584   -1.8991121576
C        0.3992661791   -2.2969924972   -1.9443949881
C        0.2026457551   -3.3020727775   -2.9789424208
C        0.5154406996   -0.5232345661   -0.5869988484
C       -2.1300353897   -0.2407959634   -2.7812420679
C        0.4159807910    0.8578827557   -0.0094882856
C       -0.6179388950   -0.1331398629   -2.9454596069
N        1.0377501370   -1.5254091291    0.0726071058
N        0.9749828727   -2.6141193461   -0.7450194134
O       -2.7476999971   -0.9814676065   -3.5286023911
O       -2.7200068621    0.5372981982   -1.8396092210
S        0.5926513949   -2.9929134980   -4.6525641157
H       -0.6440418764   -6.3862351709   -4.0573422882
H       -0.5503451866   -4.9692223126   -1.8041725356
H        0.1562444558   -5.0120370186   -6.1020630657
H       -0.4937706120    0.9355530817    0.5919524332
H        1.2767250465    1.0551263652    0.6357562652
H        0.3823579546    1.6120407829   -0.7984775420
H       -0.3356115203   -0.4486218035   -3.9515733609
H       -0.3285498393    0.9155520873   -2.8494247151
H        1.3346420950   -3.5381378556   -0.5166785068
H       -3.6682129452    0.3297548879   -1.8664795509
25   

C       -0.3666271875   -5.3332134040   -4.0360281921
C       -0.3988748118   -4.5441299561   -2.8122416967
C        0.3017807655   -4.6905658981   -5.0482227598
C        0.0442351732   -1.0231702129   -1.8738628569
C        0.4144036417   -2.3321734013   -1.9144152642
C        0.2384271745   -3.3374744119   -2.9568747610
C        0.4981175720   -0.5410579983   -0.5831582217
C       -2.2094499631   -0.3009716578   -2.6522749900
C        0.3599005244    0.8444068029   -0.0254381567
C       -0.7104556525   -0.2429241298   -2.9260148285
N        1.0866597928   -1.5119776169    0.0688420993
N        1.0454399433   -2.6131347011   -0.7350036433
O       -2.8800777127   -1.1284536213   -3.2475361029
O       -2.7308511619    0.6079429889   -1.7910996291
S        0.9110374363   -3.1131745276   -4.5547314065
H       -0.8225744612   -6.3122907035   -4.1366462164
H       -0.8805360746   -4.8651267466   -1.8955818646
H        0.4398483376   -5.0960541024   -6.0438962689
H       -0.5009389658    0.8816669349    0.6474237037
H        1.2562080252    1.1081262442    0.5429859976
H        0.2146790863    1.5752146729   -0.8239242678
H       -0.5081860628   -0.6448826185   -3.9216247876
H       -0.3882330727    0.8010015706   -2.9264550081
H        1.4479185402   -3.5204063678   -0.5098521574
H       -3.6804694565    0.4141572485   -1.7298289106
25   

C       -1.1496602932   -5.0914346187   -4.3680674787
C       -1.3354992836   -4.2762714940   -3.1753014068
C        0.0960861841   -4.9239195197   -4.9210639915
C       -0.0759886007   -1.2525069436   -1.7352221042
C       -0.0727358126   -2.6112370407   -1.7546113880
C       -0.2230728286   -3.5303678158   -2.8823393920
C        0.1252609325   -0.8923095047   -0.3453425960
C       -1.7335302236    0.0929155082   -3.0152874461
C        0.2243159057    0.4883608461    0.2315478179
C       -0.2705112869   -0.3242645649   -2.9108818985
N        0.2315339834   -1.9773493694    0.3801405367
N        0.1138398266   -3.0380588155   -0.4703214631
O       -2.4886322820   -0.5885493929   -3.6895742585
O       -2.1137882632    1.2300002325   -2.3815463697
S        1.0835100374   -3.7768030735   -4.0191036225
H       -1.9108126546   -5.7485021679   -4.7748780066
H       -2.2496834057   -4.2455174948   -2.5929923686
H        0.4410089196   -5.4311328622   -5.8147147995
H       -0.7387969468    0.7730123305    0.6633212185
H        0.9787227844    0.5077481139    1.0230800627
H        0.4939565297    1.2146017959   -0.5384856742
H        0.0325387151   -0.8167486431   -3.8388570388
H        0.3509367056    0.5671117645   -2.7950445125
H        0.1706952662   -4.0181420476   -0.2013911163
H       -3.0662672629    1.3287450449   -2.5434411466
25   

C       -1.1351710568   -4.8979236185   -4.4607101049
C       -1.3161877432   -4.0350757838   -3.3013388585
C        0.1875238074   -5.0333845214   -4.8047376675
C       -0.0451085998   -1.2805773897   -1.7030234116
C        0.0409160556   -2.6362598419   -1.6980115104
C       -0.1225733426   -3.5723850782   -2.8116490179
C        0.1574017158   -0.8807025693   -0.3249483485
C       -1.8032916478   -0.0160059130   -2.9336714010
C        0.1901099955    0.5165397989    0.2182837968
C       -0.3256903267   -0.3923136074   -2.8916652218
N        0.3297990969   -1.9430874446    0.4207647066
N        0.2551344671   -3.0261930215   -0.4066000802
O       -2.6021103864   -0.8308226215   -3.3677405628
O       -2.1532262340    1.2217707403   -2.5046173303
S        1.2566299066   -4.1259307267   -3.7376274757
H       -1.9535407655   -5.3686159229   -4.9948262481
H       -2.2801947747   -3.7605041942   -2.8860846233
H        0.5435113180   -5.6254901474   -5.6399090970
H       -0.7818148621    0.7612521393    0.6547058446
H        0.9508413567    0.5940695738    1.0001382050
H        0.4135871449    1.2365234513   -0.5722934475
H       -0.0584159562   -0.9047453386   -3.8200160139
H        0.2789905177    0.5162719703   -2.8328914266
H        0.3472460854   -3.9974963774   -0.1162345630
H       -3.1193885047    1.2781770887   -2.5862829160
25   

C       -1.1343822276   -4.8317049750   -4.5417046137
C       -1.2992312737   -3.8926094949   -3.4408313572
C        0.1730962400   -5.2194090713   -4.7014496120
C       -0.0618985118   -1.3166614805   -1.7337476443
C        0.0752670196   -2.6694887443   -1.7163071596
C       -0.1133948575   -3.6243547523   -2.8065492069
C        0.1766909377   -0.8916983545   -0.3687324809
C       -1.8781300559   -0.0460306806   -2.8885904962
C        0.1822195124    0.5130818650    0.1558055367
C       -0.4058071225   -0.4448049205   -2.9192281368
N        0.4138760567   -1.9368249005    0.3830359930
N        0.3474586871   -3.0328222863   -0.4275135627
O       -2.7070213381   -0.8403958632   -3.3033013064
O       -2.1901811941    1.1909318948   -2.4295718921
S        1.2461820053   -4.4653622591   -3.5249730045
H       -1.9515072807   -5.1751411452   -5.1669872198
H       -2.2441057959   -3.4370703438   -3.1634267427
H        0.5167298455   -5.9079006415   -5.4648357080
H       -0.7840297941    0.7344172764    0.6166282878
H        0.9620643071    0.6242319808    0.9144158242
H        0.3611538877    1.2285909558   -0.6500816321
H       -0.1958032076   -0.9743972918   -3.8526795604
H        0.2123394464    0.4566405571   -2.9104867290
H        0.4774553475   -3.9966712961   -0.1269055956
H       -3.1577916306    1.2644008493   -2.4723589137
25   

C       -1.1225772604   -4.7940504830   -4.6099132537
C       -1.2790701790   -3.7806875550   -3.5758502157
C        0.1244652247   -5.3670655499   -4.5902208069
C       -0.1239103415   -1.3233177020   -1.7403978406
C        0.0481214302   -2.6742984023   -1.7347131845
C       -0.1481538487   -3.6357111447   -2.8124791643
C        0.1638477340   -0.8973718846   -0.3844280455
C       -1.9811383974   -0.0210039982   -2.8096162010
C        0.1629502367    0.5048555177    0.1473558701
C       -0.5172073424   -0.4417266670   -2.9046853374
N        0.4624543093   -1.9377783094    0.3511907796
N        0.3895953636   -3.0320217950   -0.4603460692
O       -2.8322390508   -0.7623912845   -3.2735686206
O       -2.2607596610    1.1830921243   -2.2532618059
S        1.1479569273   -4.7021112598   -3.3202999035
H       -1.9024467079   -5.0582143133   -5.3161057966
H       -2.1834805198   -3.2013821846   -3.4280404531
H        0.4523400327   -6.1396672638   -5.2761464066
H       -0.7907781645    0.7071563183    0.6417707332
H        0.9662667080    0.6263110014    0.8794518951
H        0.3020754071    1.2273830023   -0.6601167073
H       -0.3522037169   -0.9661830851   -3.8498955566
H        0.1108287306    0.4528061131   -2.9192724102
H        0.5592042842   -3.9926925703   -0.1694459384
H       -3.2273657262    1.2775055663   -2.2734477843
25   

C       -1.0723116049   -4.7318824921   -4.7064211773
C       -1.2054071582   -3.6606339306   -3.7292476004
C        0.0728013674   -5.4638435222   -4.5203988101
C       -0.1526571278   -1.3220138046   -1.7397712328
C        0.0384130219   -2.6726883389   -1.7614108733
C       -0.1577160718   -3.6249228291   -2.8423469620
C        0.1879410525   -0.9110740530   -0.3904790133
C       -2.0466321197   -0.0059063064   -2.7392044896
C        0.1942562739    0.4821608070    0.1651636807
C       -0.5814444683   -0.4134355808   -2.8718836412
N        0.5384237591   -1.9557012919    0.3146764578
N        0.4490549507   -3.0383987112   -0.5094492126
O       -2.8916066258   -0.6748864470   -3.3113503985
O       -2.3324618294    1.1175953014   -2.0369452646
S        1.0243376134   -4.8811960863   -3.1584293583
H       -1.7967474817   -4.9242134685   -5.4906009443
H       -2.0432581560   -2.9748000005   -3.7035833851
H        0.3670712407   -6.3052046964   -5.1372110050
H       -0.7458886493    0.6699140080    0.6903334808
H        1.0179800311    0.5968570043    0.8753729185
H        0.3054613194    1.2196378263   -0.6329453802
H       -0.4247461352   -0.9063490053   -3.8350850312
H        0.0361812949    0.4883268212   -2.8733846048
H        0.6531441730   -3.9989552943   -0.2412189882
H       -3.2986419025    1.2162442572   -2.0575082561
25   

C       -0.9745572988   -4.6716587544   -4.7682107466
C       -1.0817127721   -3.5435138762   -3.8542202480
C        0.0271187927   -5.5357287653   -4.4092336200
C       -0.1920525781   -1.2888785205   -1.7253308454
C        0.0185843682   -2.6392502899   -1.7586590364
C       -0.1543661962   -3.5911959605   -2.8407439155
C        0.1744100965   -0.8782507123   -0.3817116445
C       -2.1211246442   -0.0185835815   -2.7260666943
C        0.1684068337    0.5098870432    0.1877939215
C       -0.6382025571   -0.3639564961   -2.8387956272
N        0.5672364479   -1.9178104818    0.3069948414
N        0.4794530155   -2.9966102015   -0.5210043851
O       -2.9136168526   -0.6147092997   -3.4369928269
O       -2.4782195335    0.9815359473   -1.8838916424
S        0.8702058162   -5.0100136487   -2.9568834712
H       -1.6170727087   -4.8098298849   -5.6312597293
H       -1.8279159314   -2.7673801739   -3.9614014531
H        0.2777767680   -6.4403443055   -4.9512671713
H       -0.7646048118    0.6763947329    0.7324747020
H        1.0034019300    0.6314988331    0.8835654648
H        0.2520821168    1.2582780341   -0.6032058521
H       -0.4346926494   -0.8138722848   -3.8138172017
H       -0.0615633375    0.5634141595   -2.7991608636
H        0.7176500318   -3.9524426615   -0.2643199553
H       -3.4449864021    1.0570419099   -1.9405658771
25   

C       -0.8422331935   -4.6508873552   -4.8157280710
C       -0.8958444874   -3.4759254855   -3.9580940240
C       -0.0297229763   -5.6278039063   -4.3052027090
C       -0.1907411769   -1.2908839013   -1.7053932777
C        0.0450753445   -2.6406706168   -1.7512960624
C       -0.1159560001   -3.5971241929   -2.8306256015
C        0.2407863256   -0.8700548392   -0.3835184859
C       -2.1895977442   -0.1630334025   -2.7660444058
C        0.2087422142    0.5107773864    0.2034457993
C       -0.6734352658   -0.3495643480   -2.7912093011
N        0.6793049853   -1.9004867149    0.2885086457
N        0.5616383153   -2.9819931210   -0.5301132305
O       -2.8462951783   -0.6203106147   -3.6872132652
O       -2.7267386480    0.5572743431   -1.7513395422
S        0.6943266646   -5.1524908094   -2.7749291295
H       -1.3890693190   -4.7402917352   -5.7483531068
H       -1.5110921900   -2.6194267667   -4.1929936927
H        0.1502967406   -6.5849596684   -4.7810330508
H       -0.4998010187    1.1488730295   -0.3285640862
H       -0.0811874967    0.4597887063    1.2566489509
H        1.2046150082    0.9571844365    0.1405108471
H       -0.3538879026   -0.7068136732   -3.7732450547
H       -0.2078542135    0.6300533956   -2.6567329003
H        0.8274511474   -3.9325222481   -0.2810393407
H       -3.6868594889    0.5679859544   -1.8968463519
25   

C       -0.7379675115   -4.6495717192   -4.9994702265
C       -0.6672548459   -3.4507610423   -4.1768335168
C       -0.2095911728   -5.7429932169   -4.3684322101
C       -0.0999802133   -1.3715078467   -1.7886447566
C        0.1230669007   -2.7236446444   -1.8674474981
C       -0.0799948880   -3.6698881101   -2.9498637425
C        0.3598184105   -0.9790599406   -0.4680920148
C       -2.1454085063   -0.3540993223   -2.8607592729
C        0.3126397030    0.3860267569    0.1536624645
C       -0.6198773211   -0.3949403527   -2.8247204973
N        0.8179736360   -2.0215477218    0.1697587155
N        0.6795215568   -3.0844241560   -0.6690756187
O       -2.7125331431   -0.7371740394   -3.8711336872
O       -2.7934238071    0.1606751028   -1.7870455661
S        0.3894535653   -5.3516370482   -2.7632071763
H       -1.1673779692   -4.6708505745   -5.9954369985
H       -1.0634962699   -2.5061913201   -4.5186815480
H       -0.1644871085   -6.7366563240   -4.7991949878
H       -0.4966456828    0.9813936128   -0.2757785586
H        0.1530408169    0.2990109184    1.2321643000
H        1.2629848230    0.8988048184   -0.0167848393
H       -0.2192126752   -0.6357696907   -3.8116259349
H       -0.2608184148    0.6111191018   -2.5951589507
H        0.9538893073   -4.0390887294   -0.4465644784
H       -3.7431053820    0.0986852924   -1.9798293580
25   

C       -0.7955673937   -4.5213381435   -4.9197205187
C       -0.5091708484   -3.3103864013   -4.1644477884
C       -0.6848604478   -5.6495123583   -4.1515997560
C       -0.0479699747   -1.2428991880   -1.7475815761
C        0.1362986170   -2.5998858606   -1.8109688338
C       -0.1963372879   -3.5602435353   -2.8467708235
C        0.4673727660   -0.8443748516   -0.4501372267
C       -2.1500956456   -0.5678183937   -2.9891131532
C        0.4613549716    0.5284435778    0.1554459992
C       -0.6628524842   -0.3019476831   -2.7653338946
N        0.9190539795   -1.8905521914    0.1879872973
N        0.7181172877   -2.9630919081   -0.6264854747
O       -2.5488250289   -0.6499938168   -4.1398626439
O       -2.9564077346   -0.6853571499   -1.9052219208
S       -0.2327103272   -5.2787351269   -2.4934267885
H       -1.0671806971   -4.5250446895   -5.9699776405
H       -0.5408929909   -2.3301566430   -4.6195563753
H       -0.8561646281   -6.6564612463   -4.5144822030
H       -0.4351690289    1.0765663100   -0.1447744476
H        0.4804440919    0.4564777975    1.2468576255
H        1.3458115280    1.0795324704   -0.1748853295
H       -0.1210021347   -0.3749203214   -3.7109919738
H       -0.5571254519    0.7323101965   -2.4316771059
H        0.9632127595   -3.9235456232   -0.3951236733
H       -3.8465770724   -0.8808094786   -2.2392045765
25   

C       -0.7846916304   -4.4262070810   -4.9211178312
C       -0.3473617696   -3.2566310163   -4.1727969164
C       -0.9794375881   -5.5156816252   -4.1120385599
C       -0.0201801529   -1.2073626995   -1.7206964655
C        0.1613939949   -2.5610809937   -1.7944851607
C       -0.2312951121   -3.5034631077   -2.8252391934
C        0.5416692799   -0.8180559886   -0.4401670503
C       -2.1427961326   -0.7532462070   -3.0496924253
C        0.6210860692    0.5615536885    0.1438158868
C       -0.7268447989   -0.2931125381   -2.7039907398
N        1.0270487256   -1.8679098812    0.1693384075
N        0.8019533340   -2.9364345373   -0.6457055590
O       -2.4839677407   -0.7058199160   -4.2208122485
O       -2.9498208812   -1.1888537286   -2.0505849579
S       -0.6409137237   -5.1594570859   -2.4221238179
H       -0.9409422817   -4.4300968351   -5.9946030952
H       -0.1373758449   -2.3013922214   -4.6382007038
H       -1.3067920825   -6.4873935404   -4.4635748593
H       -0.2791771903    0.7607538053    0.7315404603
H        1.4910054138    0.6393280785    0.8023505519
H        0.7056066975    1.3124685120   -0.6451446146
H       -0.1329034502   -0.2155723368   -3.6181559065
H       -0.8062754515    0.7126350819   -2.2864199952
H        1.0612647094   -3.8979178454   -0.4350920214
H       -3.7786658427   -1.4745813983   -2.4666960601
25   

C       -0.7131897176   -4.4174356021   -4.9412008241
C       -0.1882716681   -3.2798390431   -4.1995794584
C       -1.1321746952   -5.4272835317   -4.1123042090
C       -0.0519759749   -1.1804795009   -1.7495017692
C        0.1718113997   -2.5252711840   -1.8187964623
C       -0.2252845715   -3.4783871825   -2.8413467857
C        0.5495129485   -0.7630833379   -0.4966528570
C       -2.1869767828   -0.8869871602   -3.1139540101
C        0.6012322340    0.6229473991    0.0744254133
C       -0.8247766266   -0.3123968195   -2.7248564351
N        1.1047825971   -1.7904248346    0.0935592044
N        0.8860729557   -2.8729405894   -0.7059712785
O       -2.5059848415   -0.8394160843   -4.2913361775
O       -2.9734631251   -1.4185780247   -2.1453547964
S       -0.9040541626   -5.0346939348   -2.4109173784
H       -0.7717272362   -4.4555339976   -6.0237318610
H        0.1794621963   -2.3738349476   -4.6673739477
H       -1.5595162497   -6.3621107364   -4.4564213293
H       -0.2561631295    0.7770403517    0.7352072854
H        1.5173160114    0.7523815266    0.6578888475
H        0.5777401258    1.3714272896   -0.7209937043
H       -0.2245041260   -0.1662397657   -3.6267097001
H       -0.9998557344    0.6722966959   -2.2862527731
H        1.1946084300   -3.8223029687   -0.5069568160
H       -3.7605388603   -1.7710795176   -2.5902632756
25   

C       -0.6553781788   -4.4244846527   -4.9194952028
C       -0.0500986163   -3.3393005150   -4.1603902741
C       -1.2934524396   -5.3304382334   -4.1094876652
C       -0.0851654286   -1.1885578762   -1.7047054504
C        0.1652545316   -2.5261101571   -1.7853742145
C       -0.2430742693   -3.4791156316   -2.8092347801
C        0.5648900245   -0.7592373638   -0.4808649019
C       -2.2339842906   -0.9823966034   -3.0677943757
C        0.6093486964    0.6273008690    0.0891739178
C       -0.9081784333   -0.3418116273   -2.6571581151
N        1.1787203429   -1.7729836788    0.0753113829
N        0.9510404605   -2.8592106317   -0.7174584571
O       -2.5338993562   -0.9569700436   -4.2508774062
O       -3.0145796812   -1.5395436274   -2.1089837057
S       -1.1802111809   -4.9024618420   -2.4046294485
H       -0.6142867099   -4.4996446772   -6.0008592869
H        0.4752409879   -2.5034980285   -4.6086140057
H       -1.8143754012   -6.2101547678   -4.4695381155
H       -0.2069496242    0.7534152752    0.8055222336
H        1.5573427201    0.7858804552    0.6112306225
H        0.5089754073    1.3747534531   -0.7012448352
H       -0.3163998172   -0.1401645424   -3.5541428700
H       -1.1386296008    0.6192348932   -2.1921332955
H        1.2981775293   -3.7998133030   -0.5416483537
H       -3.7746140032   -1.9324513721   -2.5668441432
25   

C        0.3447733518   -4.9054894018   -4.5164016617
C        0.7839158845   -3.9109128114   -3.5472811690
C       -0.9431416656   -5.3199935395   -4.2835836267
C       -0.0651985558   -1.2857775733   -1.6174283775
C       -0.0743647676   -2.6433029655   -1.5445381946
C       -0.1865183346   -3.6273783162   -2.6204938810
C        0.0865232708   -0.8327896261   -0.2483334718
C       -1.6643990965   -0.0317086875   -3.0600368403
C        0.1711980493    0.5830710454    0.2386330908
C       -0.2078729849   -0.4374978144   -2.8597992796
N        0.1604221096   -1.8664578431    0.5519808158
N        0.0607877156   -2.9818403793   -0.2278357444
O       -2.3550355007   -0.6922175733   -3.8185123605
O       -2.1049506046    1.0804305306   -2.4207791562
S       -1.6624047406   -4.5246226429   -2.8858655048
H        0.9612375711   -5.2699503054   -5.3310587030
H        1.7591734975   -3.4374118121   -3.5569891280
H       -1.4699912859   -6.0492909641   -4.8880690902
H       -0.8070649094    0.8989606032    0.6106842449
H        0.8927422325    0.6529625971    1.0574349806
H        0.4754899679    1.2555025101   -0.5664622520
H        0.1381774273   -0.9887007967   -3.7383630751
H        0.4052902056    0.4628719840   -2.7745356944
H        0.0760538360   -3.9415366706    0.1113843055
H       -3.0442435536    1.1738075891   -2.6494815304
25   

C        0.4226286325   -5.0569382184   -4.4138530597
C        0.8776301204   -4.0990863250   -3.4153908778
C       -0.9374603769   -5.2395937755   -4.3719159553
C       -0.0961126052   -1.2652180251   -1.6427976370
C       -0.0346463348   -2.6213253610   -1.5858038933
C       -0.1577080707   -3.6046496031   -2.6641894282
C        0.0887819479   -0.8197981952   -0.2754141628
C       -1.7898163777   -0.0315026575   -2.9977241249
C        0.1312569884    0.5939664497    0.2226949685
C       -0.3189922618   -0.4150540674   -2.8717292666
N        0.2410034754   -1.8572823986    0.5092853073
N        0.1620425807   -2.9684091474   -0.2791674586
O       -2.5100273099   -0.7078274589   -3.7135561709
O       -2.2119384619    1.0801793600   -2.3454338034
S       -1.7084757157   -4.2621263553   -3.1254285048
H        1.0810877941   -5.5627550670   -5.1118192663
H        1.9115671896   -3.8017261582   -3.2808206212
H       -1.4869136560   -5.9035607649   -5.0292739940
H       -0.8451727315    0.8649678483    0.6329179165
H        0.8787769803    0.6875626299    1.0154103913
H        0.3772973254    1.2851225449   -0.5865421971
H       -0.0083534234   -0.9583515052   -3.7686341642
H        0.2837743109    0.4945711585   -2.8136901632
H        0.2253348176   -3.9300751053    0.0486606402
H       -3.1625635056    1.1600178513   -2.5277071147
25   

C        0.4695757912   -5.1489300474   -4.3321027207
C        0.9379915376   -4.2419762671   -3.2931324272
C       -0.8892583788   -5.0711616696   -4.5110067270
C       -0.0613181658   -1.1993717507   -1.6508968076
C        0.0518342948   -2.5536687109   -1.6459483201
C       -0.0855882678   -3.5146572122   -2.7404103529
C        0.1522351418   -0.7975989367   -0.2740813981
C       -1.8047704068    0.1400994739   -2.8445486673
C        0.1730415766    0.5989346212    0.2715802328
C       -0.3463746329   -0.3079349510   -2.8373821918
N        0.3598179853   -1.8566618925    0.4680338641
N        0.2913629935   -2.9412066502   -0.3573677540
O       -2.6261663252   -0.5546459772   -3.4197503382
O       -2.1072619361    1.3216577636   -2.2518270772
S       -1.6426438955   -3.8998472989   -3.4323913240
H        1.1187285518   -5.8081999295   -4.8983206812
H        1.9743068043   -4.1482942531   -2.9884063105
H       -1.4471140750   -5.6564949006   -5.2328718091
H       -0.7947013353    0.8275161835    0.7257714827
H        0.9464739001    0.6873343470    1.0396819450
H        0.3704168913    1.3236196185   -0.5217112952
H       -0.1280557339   -0.8376227932   -3.7689297171
H        0.2989718495    0.5735619553   -2.8038287461
H        0.3811765047   -3.9118507891   -0.0642899803
H       -3.0669048543    1.4372704811   -2.3478143232
25   

C        0.4826297284   -5.3084152995   -4.2436084846
C        0.9177361315   -4.4135037568   -3.1801207019
C       -0.8154493728   -5.0701244254   -4.6198518754
C       -0.1436386836   -1.2049341603   -1.7325191587
C        0.0481074229   -2.5516228068   -1.7314263656
C       -0.0657976036   -3.5310813951   -2.8070151948
C        0.1038521732   -0.7878724114   -0.3656102924
C       -1.9782995317    0.0967537525   -2.8384631658
C        0.0757558102    0.6098619905    0.1768723426
C       -0.5127603213   -0.3236120099   -2.9041489628
N        0.4021984404   -1.8306970681    0.3681815292
N        0.3619426056   -2.9196159270   -0.4526763577
O       -2.8173333455   -0.6276822260   -3.3475461695
O       -2.2703643500    1.2877084546   -2.2597814268
S       -1.5489598600   -3.7569852149   -3.7037401660
H        1.1108206980   -6.0741203443   -4.6860461268
H        1.9055950617   -4.4382885244   -2.7341151061
H       -1.3407398869   -5.6191273990   -5.3928902966
H       -0.8913090563    0.7983984337    0.6503579161
H        0.8606695849    0.7341069158    0.9282248997
H        0.2258101266    1.3397383161   -0.6220456929
H       -0.3303468035   -0.8491822178   -3.8455028404
H        0.1153324013    0.5709757852   -2.9057367553
H        0.5116668948   -3.8827989346   -0.1599998759
H       -3.2358910886    1.3835327708   -2.3059642801
25   

C        0.4289959790   -5.3835418348   -4.1580137769
C        0.8319369489   -4.5309443694   -3.0482790856
C       -0.7595065380   -4.9813987192   -4.7124255462
C       -0.1695538561   -1.1865964523   -1.7345985098
C        0.0471562907   -2.5318163785   -1.7475490235
C       -0.0642518194   -3.5151654338   -2.8149111295
C        0.1262528533   -0.7696866865   -0.3766756876
C       -2.0532921418    0.1034439835   -2.7759923258
C        0.0955239773    0.6245175084    0.1755289951
C       -0.5823435844   -0.2899308997   -2.8809022020
N        0.4781597192   -1.8076754446    0.3389812366
N        0.4271625913   -2.8934135373   -0.4843544963
O       -2.8904912562   -0.6200536006   -3.2892561422
O       -2.3530492621    1.2734377663   -2.1598055182
S       -1.4246197594   -3.5612485323   -3.9121438484
H        1.0016391634   -6.2365736402   -4.5060282169
H        1.7416942877   -4.6783017753   -2.4777235832
H       -1.2438936162   -5.4721109902   -5.5487784520
H       -0.8577535099    0.7956090168    0.6823540282
H        0.9034263643    0.7563373440    0.9008086984
H        0.2079135683    1.3620689384   -0.6224159413
H       -0.4065283288   -0.7882678191   -3.8376707164
H        0.0281436166    0.6166858371   -2.8774918248
H        0.6075951932   -3.8533741430   -0.1993935546
H       -3.3206604216    1.3547105066   -2.1856784172
25   

C        0.3499866557   -5.5242430108   -4.0281322490
C        0.7156299802   -4.7020681568   -2.8833153495
C       -0.6915301649   -4.9853380630   -4.7381248394
C       -0.1709561733   -1.2278034688   -1.7090057329
C        0.0586208840   -2.5741769656   -1.7235764376
C       -0.0622613307   -3.5717850708   -2.7735952807
C        0.1842475018   -0.7975560478   -0.3684257803
C       -2.1185000533   -0.0141093650   -2.7294783884
C        0.1622641047    0.5973243240    0.1839635986
C       -0.6276455036   -0.3233464642   -2.8341771481
N        0.5869659309   -1.8244131075    0.3348427763
N        0.5128497887   -2.9150700743   -0.4784448804
O       -2.8989671646   -0.6568445963   -3.4118707442
O       -2.4966879567    1.0093051641   -1.9242452429
S       -1.2585428709   -3.4707282767   -4.0443674109
H        0.8447475816   -6.4533074860   -4.2903570149
H        1.5234341311   -4.9541374546   -2.2065938146
H       -1.1244969227   -5.4299255594   -5.6268316241
H       -0.7720494026    0.7595397918    0.7276704008
H        0.9966043902    0.7374130402    0.8770736515
H        0.2362415866    1.3368637599   -0.6162695038
H       -0.4109472668   -0.7762415948   -3.8044644001
H       -0.0727456652    0.6172871755   -2.8000552163
H        0.7255568749   -3.8681220568   -0.1939178394
H       -3.4651591429    1.0568521183   -1.9799317792
25   

C        0.2483371664   -5.5580699330   -3.9438295003
C        0.5597996961   -4.7613142276   -2.7656148162
C       -0.5826572805   -4.8959809163   -4.8088590744
C       -0.1655701502   -1.1641784932   -1.7355226203
C        0.0805820470   -2.5119024531   -1.7486288515
C       -0.0484109165   -3.5247645405   -2.7823181867
C        0.2565600187   -0.7126326031   -0.4206926321
C       -2.1823134069   -0.0900729929   -2.8010808365
C        0.2196120782    0.6811456471    0.1344918148
C       -0.6641900980   -0.2516739260   -2.8384338307
N        0.6918598090   -1.7269032011    0.2787660191
N        0.5803054097   -2.8282187828   -0.5133892106
O       -2.8507640482   -0.6446094989   -3.6575473528
O       -2.7094581181    0.7228154269   -1.8522771351
S       -1.0115589043   -3.2936300283   -4.2235161091
H        0.6313467419   -6.5577759687   -4.1187604397
H        1.2142559587   -5.1135145807   -1.9778609156
H       -0.9409517380   -5.3005996988   -5.7484439262
H       -0.4890078586    1.3051806155   -0.4138239613
H       -0.0727721639    0.6537294093    1.1878843184
H        1.2145425526    1.1284965664    0.0636498083
H       -0.3516749914   -0.6230416141   -3.8168747241
H       -0.2111717977    0.7367049211   -2.7279365563
H        0.8162822641   -3.7734648958   -0.2229346055
H       -3.6720841087    0.7036470536   -1.9782100836
25   

C       -0.0648612143   -5.5860442557   -3.8258174812
C        0.2704506894   -4.7888433338   -2.6543593246
C       -0.6406839844   -4.8328146522   -4.8148301696
C       -0.1093276836   -1.0691088969   -1.8209780700
C        0.1480848970   -2.4163602019   -1.8128005747
C       -0.0644025025   -3.4598964839   -2.8006841530
C        0.3577095036   -0.5803295388   -0.5365142652
C       -2.2259557671   -0.2022178940   -2.9028542964
C        0.2743361161    0.8205816758   -0.0054736311
C       -0.6986639006   -0.1858312062   -2.9045403118
N        0.8473958852   -1.5685533721    0.1632241328
N        0.7210570988   -2.6890629221   -0.5991937953
O       -2.8016592559   -0.3416784608   -3.9696039850
O       -2.8701065363   -0.0368776668   -1.7201176213
S       -0.7934678379   -3.1411661547   -4.3581899463
H        0.1194976356   -6.6519431826   -3.9072174095
H        0.7346319811   -5.2142253060   -1.7734963703
H       -0.9688620718   -5.2219426976   -5.7718525794
H       -0.5742726732    1.3505962411   -0.4449385053
H        0.1537450034    0.8009597939    1.0814275055
H        1.1952838781    1.3587925603   -0.2445715732
H       -0.3208573957   -0.4825924311   -3.8851661728
H       -0.3738948763    0.8463313952   -2.7551827719
H        1.0139780540   -3.6171752823   -0.3065508016
H       -3.8199847213   -0.0928829422   -1.9117351161
