54

C     -0.57383  -10.44936    4.03416
C     -1.16159  -10.05470    5.25793
C     -0.39716   -9.52483    3.02406
C     -1.53989   -8.74265    5.45365
C     -0.37679   -7.66131   -2.59109
C      1.75382   -7.91513   -1.50627
C     -0.99751   -5.88531    2.35244
C      0.10562   -8.33443   -3.71150
C      2.25526   -8.59507   -2.62013
C     -1.52087   -5.48112    3.60135
C     -0.79966   -8.17103    3.17826
C     -1.36509   -7.76705    4.43492
C      0.43866   -7.43710   -1.47199
C     -0.64561   -7.20774    2.11542
C      1.42678   -8.80651   -3.73356
C     -1.71395   -6.39460    4.60882
C      4.54147  -11.85655   -8.90841
C      6.04488  -13.18541   -5.73783
C     -0.08786   -6.71904   -0.25173
C      5.22689  -11.08951   -7.76438
C      4.64027  -12.60493   -5.90335
C      3.30999  -10.61709   -6.31524
C      3.14953   -9.95956   -4.94723
N     -0.11090   -7.62418    0.89704
N      4.63264  -11.23428   -6.42960
O      1.81264   -9.45479   -4.87288
Cl    -2.40254   -5.83787    6.13451
H     -0.25066  -11.47724    3.89286
H     -1.30350  -10.78414    6.05099
H      0.09113   -9.84183    2.10787
H     -1.97518   -8.43824    6.39903
H     -1.40427   -7.30383   -2.58812
H      2.39936   -7.75704   -0.64553
H     -0.89108   -5.13746    1.57565
H     -0.52374   -8.50708   -4.57966
H      3.28075   -8.94623   -2.61170
H     -1.78942   -4.44070    3.75553
H      4.58933  -12.93997   -8.75951
H      3.48701  -11.57658   -9.00530
H      5.03568  -11.63164   -9.85999
H      6.53421  -13.36814   -6.69934
H      6.67521  -12.50444   -5.15698
H      5.99230  -14.14407   -5.21130
H      0.56093   -5.87047   -0.00378
H     -1.08644   -6.30686   -0.46552
H      5.23412  -10.01922   -7.99828
H      6.27784  -11.38848   -7.70432
H      4.15986  -12.57846   -4.91990
H      4.02727  -13.28584   -6.52158
H      2.48664  -11.33300   -6.47148
H      3.20011   -9.84186   -7.07926
H      3.87563   -9.14494   -4.84051
H      3.32139  -10.68250   -4.14020
H     -0.36522   -8.56760    0.63075
