50

C      1.47358    7.08193   -0.88014
C     -0.50512    6.29891    0.23374
C      2.00179    7.52364    0.33504
C      0.00300    6.73509    1.45906
C      0.21803    6.46042   -0.95911
C      1.25746    7.34493    1.50122
C     -2.83174    1.71570   -8.07017
C     -1.13894    2.81204   -6.58330
C     -2.99469    1.66135   -5.56608
C     -1.78180    6.15629   -2.59751
C     -0.27795    5.96193   -2.29655
C     -1.83631    2.87609   -7.94605
C     -3.79179    1.66040   -6.87494
C     -0.07492    4.44882   -2.59788
C     -1.01438    4.31234   -3.81023
C     -0.81539    2.87795   -9.08780
C     -4.72658    0.44938   -6.94940
C     -0.43149    3.51856   -1.43419
C     -1.43892    2.89628   -4.17883
N     -2.09972    2.81593   -5.48024
O     -2.17752    5.08218   -3.45987
Cl     1.90406    7.89763    3.03937
H      2.05541    7.22603   -1.78796
H     -1.47981    5.82155    0.22228
H      2.97463    8.00352    0.37616
H     -0.56859    6.60293    2.37250
H     -3.39789    1.80081   -9.00640
H     -2.27314    0.76890   -8.12639
H     -0.49793    1.90475   -6.54581
H     -0.47190    3.67370   -6.47807
H     -3.68631    1.70095   -4.71765
H     -2.43305    0.70611   -5.48545
H     -2.40223    6.11436   -1.69649
H     -1.96662    7.11922   -3.08889
H      0.28200    6.50093   -3.06870
H     -2.40146    3.81687   -7.97446
H     -4.39727    2.57621   -6.88080
H      0.96319    4.26599   -2.89753
H     -0.52811    4.78350   -4.67821
H     -0.21614    1.95937   -9.08299
H     -0.12669    3.72720   -9.00881
H     -1.31485    2.94270  -10.06076
H     -4.15897   -0.48895   -6.93112
H     -5.31417    0.46346   -7.87401
H     -5.42838    0.43245   -6.10761
H     -1.47871    3.62786   -1.13479
H      0.19275    3.72747   -0.56147
H     -0.27313    2.47215   -1.71136
H     -2.13879    2.55161   -3.41326
H     -0.55422    2.23122   -4.13318
