23   
Generated by ForceBalance from scan.xyz: Frame 1 of 24
C        2.6110550673   -4.2197210210   -0.8866946434
C        1.7148531558   -1.3095121571   -0.0268580664
C        0.6026631221   -0.7959602299    0.6366258236
C        1.7699063814   -1.0431199996    2.7506213100
C        2.8795491370   -1.6971429881    0.6505442477
C        2.8751571901   -1.5225236852    2.0434158319
C        0.6475766072   -0.6803026803    2.0230970015
C        3.6061851901   -3.2182239833   -1.2786957303
C        4.0500476074   -2.2934595845   -0.1190785148
N        1.8197931090   -5.0064481335   -0.5599454146
N        4.8381237614   -1.2013423351   -0.7163922077
N        4.0730242135   -1.8030848162    2.8569813466
O        3.9044467467   -2.2480055240    3.9932914480
O        5.1781258896   -1.5434650553    2.3593066503
F       -0.4276970707   -0.1941864797    2.6801161266
H        1.6709457844   -1.4133452942   -1.1051864291
H       -0.2915776012   -0.4981291429    0.0984052205
H        1.7969219150   -0.9464374884    3.8296212512
H        4.4902878928   -3.7470815298   -1.6523465410
H        3.2349021713   -2.6222737361   -2.1173825737
H        4.6501695263   -2.9080906318    0.5602013510
H        5.6672093073   -1.5942269094   -1.1640548885
H        5.1848793046   -0.6166066450    0.0437102954
23   
Generated by ForceBalance from scan.xyz: Frame 2 of 24
C        3.0526913110   -4.2086092988   -0.0743200574
C        1.8794226678   -0.8114112881    0.0033484310
C        0.6995240453   -0.4348543378    0.6416541534
C        1.5474433445   -1.3611428510    2.7156600091
C        2.9130610168   -1.4829519562    0.6740892427
C        2.7095936721   -1.7473971286    2.0416882489
C        0.5535088813   -0.7193961392    1.9959326633
C        3.9312364910   -3.2886285119   -0.8004668494
C        4.1419492161   -1.8981930575   -0.1232601455
N        2.3225776442   -4.9282843090    0.4736297613
N        4.3844170697   -0.9308099073   -1.2118808157
N        3.7151085178   -2.4451988244    2.8703099023
O        3.6682582396   -2.2725143302    4.0915331951
O        4.5467357114   -3.1645587467    2.3038232885
F       -0.5843700711   -0.3575468645    2.6293599771
H        2.0239522309   -0.5866377480   -1.0475142325
H       -0.0986685813    0.0705693355    0.1067852992
H        1.4282928881   -1.5690614474    3.7717280438
H        4.8994678643   -3.7771015663   -0.9502836844
H        3.4944133238   -3.1147592857   -1.7897926943
H        5.0007284709   -1.9819877063    0.5430619007
H        5.1770453630   -1.2504776790   -1.7685554560
H        4.6649719034   -0.0370651975   -0.8087360020
23   
Generated by ForceBalance from scan.xyz: Frame 3 of 24
C        2.9387347798   -4.1389084063   -0.1212870244
C        1.8698934812   -0.8077804089    0.0215735779
C        0.6966509158   -0.4330779382    0.6737715936
C        1.5686468055   -1.3583170088    2.7401452987
C        2.9115862693   -1.4761518200    0.6813560706
C        2.7211545279   -1.7427736562    2.0501373482
C        0.5676088342   -0.7165538501    2.0298946504
C        4.0128619269   -3.3300398613   -0.7026174606
C        4.1438846757   -1.8826913835   -0.1152760606
N        2.0680766125   -4.7672141069    0.3244570087
N        4.3289026876   -0.9631284824   -1.2546492924
N        3.7306482132   -2.4563473508    2.8553095442
O        3.7221500010   -2.2765218882    4.0760164554
O        4.5264859915   -3.2013710188    2.2685642515
F       -0.5633667132   -0.3554272672    2.6757280533
H        1.9981418185   -0.5902030093   -1.0327685037
H       -0.1097349900    0.0683133587    0.1474350094
H        1.4607565741   -1.5694240077    3.7969677917
H        4.9539660520   -3.8710565141   -0.5718647190
H        3.8215186358   -3.2450490079   -1.7773209925
H        5.0125648534   -1.8834323954    0.5459943985
H        5.1374784654   -1.2670227048   -1.7967302259
H        4.5592055663   -0.0341847495   -0.9018486534
23   
Generated by ForceBalance from scan.xyz: Frame 4 of 24
C        2.8106479949   -4.0715798407   -0.2718198042
C        1.8459766758   -0.8387765071    0.0345914221
C        0.6772638761   -0.4549670538    0.6894137906
C        1.5693307932   -1.3336658221    2.7666045879
C        2.8965228120   -1.4890801274    0.6984402749
C        2.7158722302   -1.7293860919    2.0729794269
C        0.5603564158   -0.7089947155    2.0523505252
C        4.0535564055   -3.3741493202   -0.6143978549
C        4.1328345973   -1.8943711031   -0.0964271674
N        1.8184215668   -4.6142946066   -0.0021429658
N        4.2787644422   -1.0109849431   -1.2675409278
N        3.7300440148   -2.4321019000    2.8785886066
O        3.7554347263   -2.2124757758    4.0922337884
O        4.4944197809   -3.2140585825    2.2968384802
F       -0.5655645970   -0.3367832185    2.7006146126
H        1.9599150669   -0.6475044380   -1.0263455491
H       -0.1358406302    0.0307027490    0.1587604185
H        1.4715679566   -1.5237783268    3.8284825787
H        4.8841603454   -3.9567218194   -0.2111629012
H        4.1342207077   -3.3688184387   -1.7058133151
H        5.0013892913   -1.8431326616    0.5657621493
H        5.1069752743   -1.2896582721   -1.7924764154
H        4.4512990046   -0.0567188789   -0.9513570459
23   
Generated by ForceBalance from scan.xyz: Frame 5 of 24
C        2.5411201992   -3.5993440375   -1.1751335477
C        2.1911931183   -0.5399178537   -0.1758932330
C        1.0663516055   -0.0179237012    0.4583680743
C        1.6639259816   -1.2211617388    2.4773995095
C        3.0733366172   -1.4217266641    0.4673861289
C        2.7677882828   -1.7488061682    1.8009223926
C        0.8228057389   -0.3680032645    1.7828970946
C        3.9722258429   -3.3173647757   -1.0138496692
C        4.2763868975   -1.9522301680   -0.3085049786
N        1.4052647402   -3.8142043037   -1.3004926632
N        4.6654555553   -0.9736773613   -1.3359889356
N        3.5943976190   -2.6850313184    2.5829202502
O        4.2199274317   -3.5609411969    1.9693607440
O        3.6068786607   -2.5547184235    3.8094388584
F       -0.2616237224    0.1360732141    2.4122905451
H        2.4007658796   -0.2775777474   -1.2064839987
H        0.3815591917    0.6461738225   -0.0597796122
H        1.4704360681   -1.4828473061    3.5105604191
H        4.4171269606   -4.1380099802   -0.4499873553
H        4.4003805300   -3.3014265571   -2.0209806480
H        5.0729705085   -2.1559212328    0.4136045739
H        5.4876639010   -1.3156901345   -1.8312901037
H        4.9420141343   -0.1005381213   -0.8878710885
23   
Generated by ForceBalance from scan.xyz: Frame 6 of 24
C        2.5709231991   -3.4549808000   -1.4744320847
C        2.1527629457   -0.6171987199   -0.1687836183
C        1.0339692963   -0.0951989317    0.4756711780
C        1.7120223499   -1.2063999443    2.5218657977
C        3.0707303993   -1.4568395160    0.4821929617
C        2.8084408612   -1.7383333108    1.8355958370
C        0.8337134898   -0.3988055464    1.8188806332
C        3.9546062280   -3.3465722451   -0.9936036006
C        4.2681754093   -1.9820181075   -0.3080601524
N        1.4739556455   -3.5332897143   -1.8519673881
N        4.6365184319   -1.0071083564   -1.3426360231
N        3.6785664594   -2.6202959635    2.6344473154
O        4.2937983501   -3.5208615691    2.0460544460
O        3.7356856396   -2.4231766208    3.8506476971
F       -0.2437572516    0.1067338632    2.4590996692
H        2.3307063639   -0.3869628668   -1.2126930918
H        0.3215738301    0.5338043142   -0.0489544077
H        1.5533632476   -1.4289356477    3.5700450257
H        4.1501479088   -4.1654116172   -0.3005180943
H        4.5913125606   -3.4571015668   -1.8777760383
H        5.0662294550   -2.1897640758    0.4120106028
H        5.4512190683   -1.3442299466   -1.8529353798
H        4.9090862437   -0.1277888264   -0.9053761526
23   
Generated by ForceBalance from scan.xyz: Frame 7 of 24
C        2.6122218391   -3.3492544846   -1.6672993156
C        2.1019066124   -0.6435842736   -0.1333007129
C        0.9937211414   -0.1099345532    0.5204961741
C        1.7240184644   -1.1551175070    2.5840896044
C        3.0385665609   -1.4592153091    0.5221948270
C        2.8072297920   -1.7019259279    1.8887291449
C        0.8251595923   -0.3743185792    1.8763738198
C        3.8872260994   -3.3599633072   -0.9382480722
C        4.2237406442   -1.9962430309   -0.2772458900
N        1.5976612258   -3.3365090766   -2.2350391423
N        4.5826067946   -1.0351030580   -1.3272618120
N        3.7003053257   -2.5549655915    2.6936443461
O        4.2884481008   -3.4849547823    2.1233646551
O        3.8015862845   -2.3051980163    3.8972089600
F       -0.2410711597    0.1441411736    2.5249791841
H        2.2589836183   -0.4384273938   -1.1856215395
H        0.2666378279    0.5002389875   -0.0062346047
H        1.5908116963   -1.3459252180    3.6421035023
H        3.8565166140   -4.1389064060   -0.1748764247
H        4.6689787259   -3.6096547920   -1.6643226738
H        5.0371139935   -2.2065094216    0.4249384551
H        5.3722671458   -1.3918115580   -1.8628479657
H        4.8847791808   -0.1585725183   -0.9048104359
23   
Generated by ForceBalance from scan.xyz: Frame 8 of 24
C        2.7299090788   -3.2886795881   -1.8584070594
C        2.0661700883   -0.6747175399   -0.1167302654
C        0.9582002200   -0.1525273961    0.5473913835
C        1.7312136894   -1.1661569171    2.6121563428
C        3.0222304965   -1.4702572751    0.5355762528
C        2.8120471971   -1.7042353569    1.9068159809
C        0.8117849294   -0.4058952587    1.9080972136
C        3.8620856198   -3.3629083148   -0.9268040957
C        4.2027907066   -1.9998003492   -0.2731495043
N        1.8210666210   -3.2293870939   -2.5810060159
N        4.5459038505   -1.0372826375   -1.3290610350
N        3.7283207128   -2.5388612537    2.7044215808
O        4.3079730705   -3.4746425408    2.1348500132
O        3.8563814516   -2.2684481395    3.9008881848
F       -0.2529860509    0.1038444509    2.5660036575
H        2.2110495433   -0.4734752945   -1.1716514995
H        0.2156986572    0.4429846555    0.0253199500
H        1.6151756563   -1.3474814429    3.6739406216
H        3.6344919897   -4.0889766087   -0.1440102076
H        4.7376977728   -3.7338562059   -1.4714770440
H        5.0395285700   -2.2036155007    0.4023671563
H        5.2972198669   -1.4129793260   -1.9056000856
H        4.8966678724   -0.1771861976   -0.9105595048
23   
Generated by ForceBalance from scan.xyz: Frame 9 of 24
C        2.8798090528   -3.2702345628   -2.0138103208
C        2.0328871728   -0.6946150290   -0.0957662253
C        0.9265466405   -0.1789314604    0.5767883406
C        1.7321083848   -1.1687334217    2.6413383853
C        3.0031432355   -1.4750739182    0.5534406809
C        2.8094987072   -1.7025253743    1.9277223883
C        0.7981412329   -0.4220806823    1.9414325547
C        3.8353908944   -3.3702820259   -0.9049562982
C        4.1786071854   -2.0005754241   -0.2626287776
N        2.1063538476   -3.1988361287   -2.8788854855
N        4.5044294496   -1.0379249632   -1.3264322212
N        3.7395411544   -2.5307513410    2.7154726698
O        4.3104458564   -3.4680264577    2.1395544761
O        3.8827421498   -2.2572243800    3.9094978258
F       -0.2638503775    0.0836556975    2.6070647234
H        2.1689999799   -0.4977198245   -1.1529800024
H        0.1727216794    0.4061995143    0.0591121930
H        1.6292011117   -1.3433386538    3.7056682700
H        3.4161192900   -4.0255799923   -0.1382721879
H        4.7539887513   -3.8596510140   -1.2465525985
H        5.0381239808   -2.1893760250    0.3869383076
H        5.2134328224   -1.4311801731   -1.9434499044
H        4.9031881691   -0.1947970177   -0.9165756705
23   
Generated by ForceBalance from scan.xyz: Frame 10 of 24
C        3.0464925581   -3.3016256176   -2.1673995212
C        2.0116346149   -0.6758981920   -0.0695030967
C        0.9250369779   -0.1581253532    0.6334240647
C        1.7794384890   -1.1600350854    2.6732006828
C        2.9942875484   -1.4630410577    0.5515175247
C        2.8347903091   -1.6960948366    1.9289907197
C        0.8315737626   -0.4059490443    2.0003447718
C        3.7880591286   -3.3804909086   -0.9045990985
C        4.1459549431   -1.9930228512   -0.2946245865
N        2.4527730142   -3.2582838253   -3.1661537497
N        4.4338928543   -1.0365479123   -1.3760443959
N        3.7802633301   -2.5362887444    2.6843391390
O        4.3344939612   -3.4674433735    2.0826472737
O        3.9531507795   -2.2779067233    3.8777678172
F       -0.2102027307    0.1026897708    2.6950949631
H        2.1257534870   -0.4738198469   -1.1286664941
H        0.1612712470    0.4340442789    0.1386911638
H        1.7036094411   -1.3384708392    3.7392116888
H        3.1826399999   -3.9391212813   -0.1872567005
H        4.6951464968   -3.9796249439   -1.0321985483
H        5.0324415670   -2.1620154997    0.3221787377
H        5.0793251728   -1.4494568989   -2.0472948369
H        4.8922387985   -0.2125348085   -0.9904790010
23   
Generated by ForceBalance from scan.xyz: Frame 11 of 24
C        3.2761524498   -3.3867566818   -2.3044467437
C        1.9700826896   -0.6132707079   -0.0564053310
C        0.9101962936   -0.0818081818    0.6768186636
C        1.7887668370   -1.1257471410    2.6839088334
C        2.9500696453   -1.4276227966    0.5322798823
C        2.8167344300   -1.6735616015    1.9103181377
C        0.8413586263   -0.3442009730    2.0425755147
C        3.7064951779   -3.3848702187   -0.9026867851
C        4.0773566544   -1.9697269239   -0.3417856292
N        2.9494967371   -3.4088717400   -3.4203084615
N        4.3276103262   -1.0277250977   -1.4427976879
N        3.7620592233   -2.5421898299    2.6326831398
O        4.2911824695   -3.4687554890    2.0021443651
O        3.9588256684   -2.3115985127    3.8280170881
F       -0.1742880275    0.1768643363    2.7662614537
H        2.0664890445   -0.4000508427   -1.1152592709
H        0.1488555216    0.5332238494    0.2067890734
H        1.7334488113   -1.3161403160    3.7490963130
H        2.9029089677   -3.8185786924   -0.3038210001
H        4.5519943761   -4.0668475219   -0.7796267690
H        4.9762986919   -2.1166083666    0.2626641584
H        4.9343417293   -1.4490797756   -2.1436719230
H        4.8098357688   -0.2054271835   -1.0838022754
23   
Generated by ForceBalance from scan.xyz: Frame 12 of 24
C        3.5677753221   -3.4957432673   -2.3686974677
C        1.9374850266   -0.6034085472   -0.0123631358
C        0.9053969281   -0.0651925797    0.7545807634
C        1.8364603059   -1.1228364082    2.7294282844
C        2.9295198926   -1.4281778556    0.5413645919
C        2.8358412017   -1.6758943989    1.9223182740
C        0.8759281987   -0.3316007553    2.1210277036
C        3.6232089465   -3.3961538122   -0.9065576725
C        4.0283873186   -1.9731916839   -0.3722100682
N        3.5527210090   -3.5871214088   -3.5281620368
N        4.2389366814   -1.0299442332   -1.4762537342
N        3.7951856506   -2.5529911792    2.6156607117
O        4.2989969691   -3.4818416129    1.9686961718
O        4.0283527263   -2.3254692949    3.8049402560
F       -0.1127969721    0.1950218438    2.8771904310
H        2.0027346515   -0.3856909263   -1.0726838697
H        0.1361352707    0.5589909645    0.3101795381
H        1.8132343834   -1.3166918613    3.7951612343
H        2.6480848100   -3.6900513413   -0.5123104039
H        4.3392597504   -4.1368706092   -0.5453779814
H        4.9327113244   -2.1209372408    0.2250410443
H        4.8384192433   -1.4382295780   -2.1907744652
H        4.7097962699   -0.1974613762   -1.1260502060
23   
Generated by ForceBalance from scan.xyz: Frame 13 of 24
C        3.8156779188   -3.5749490677   -2.3675195726
C        1.8864298603   -0.6049561465    0.0165295262
C        0.8763581814   -0.0580110498    0.8053590854
C        1.8557914698   -1.1077838785    2.7610746460
C        2.8907447548   -1.4309314811    0.5477489642
C        2.8335621211   -1.6685575980    1.9323387908
C        0.8816629480   -0.3181670468    2.1734599419
C        3.4811555296   -3.3708522406   -0.9531931472
C        3.9604668527   -1.9821120311   -0.4000056881
N        4.1139122597   -3.7316237880   -3.4809723338
N        4.1711834460   -1.0215778707   -1.4855369858
N        3.8110114931   -2.5369609473    2.6139068180
O        4.2979962637   -3.4774726429    1.9717056543
O        4.0753156875   -2.2883542965    3.7924412487
F       -0.0860573144    0.2144832382    2.9519145839
H        1.9252245670   -0.3908262822   -1.0459305962
H        0.0987763323    0.5674845252    0.3775415899
H        1.8598617776   -1.2943223641    3.8283194546
H        2.4020322267   -3.4927804846   -0.8361881119
H        3.9820010915   -4.1638875610   -0.3954388112
H        4.8553535159   -2.1782948628    0.1982539775
H        4.7907308492   -1.4122219837   -2.1932995602
H        4.6216300052   -0.1857423864   -1.1171237256
23   
Generated by ForceBalance from scan.xyz: Frame 14 of 24
C        4.6101140553   -4.2379646626   -1.6360146995
C        1.8828627152   -1.1090093466   -0.1441105131
C        0.7676880755   -0.5575450942    0.4830501491
C        1.7801662714   -1.0027174256    2.6418499301
C        2.9629215713   -1.6442903451    0.5774751647
C        2.8685818219   -1.5797516430    1.9788081886
C        0.7369690067   -0.5120186369    1.8745798357
C        3.8543848509   -3.7347262681   -0.4812684207
C        4.1438363565   -2.2261018719   -0.2051716280
N        5.2332238941   -4.6061858104   -2.5467501503
N        4.2933817344   -1.4911878024   -1.4629686239
N        3.9236549563   -2.1179608213    2.8583533756
O        4.5638769716   -3.1012469362    2.4621574656
O        4.0960831753   -1.5676005696    3.9482750644
F       -0.3349947908    0.0276833815    2.4954145149
H        1.9465492200   -1.1255701207   -1.2267522981
H       -0.0652632777   -0.1595182264   -0.0884408387
H        1.7548686210   -0.9491410590    3.7236730094
H        2.7905374644   -3.9063709665   -0.6614461882
H        4.1792774675   -4.3162825464    0.3834853536
H        5.0198292576   -2.1872405048    0.4499081216
H        5.0242293221   -1.9161532720   -2.0319852224
H        4.5843777278   -0.5349763090   -1.2669123661
23   
Generated by ForceBalance from scan.xyz: Frame 15 of 24
C        4.7463858484   -4.2780052478   -1.4892796219
C        1.8525054605   -1.0896495489   -0.1221551287
C        0.7521228950   -0.5331882410    0.5267462096
C        1.7943199728   -1.0017986315    2.6660494325
C        2.9392512565   -1.6387093799    0.5783630232
C        2.8667100964   -1.5830936656    1.9815797002
C        0.7433107961   -0.4967199234    1.9187185369
C        3.7952786957   -3.7169998123   -0.5207945770
C        4.1022438328   -2.2230565588   -0.2249631865
N        5.5181416175   -4.6779499800   -2.2623770293
N        4.2402394993   -1.4882258823   -1.4865432794
N        3.9315250301   -2.1356049477    2.8403041218
O        4.5587437800   -3.1202077609    2.4272166279
O        4.1247355910   -1.5938095422    3.9309719025
F       -0.3136505793    0.0483838808    2.5601598394
H        1.8992453842   -1.0977762101   -1.2057463048
H       -0.0861324998   -0.1239180237   -0.0287676757
H        1.7868923915   -0.9553866917    3.7484896645
H        2.7837720370   -3.8277133458   -0.9209495935
H        3.8884613784   -4.2876397300    0.4050987627
H        4.9985865688   -2.1994689491    0.4029486795
H        4.9664750713   -1.9200481999   -2.0571582517
H        4.5438257936   -0.5348485127   -1.2950258467
23   
Generated by ForceBalance from scan.xyz: Frame 16 of 24
C        4.8567046000   -4.3120960155   -1.3472673538
C        1.8275103406   -1.0767996338   -0.1165227328
C        0.7390645370   -0.5213056985    0.5536496370
C        1.8154923658   -1.0069657803    2.6729344592
C        2.9234305206   -1.6329959087    0.5630926630
C        2.8740295774   -1.5876127684    1.9677707100
C        0.7542910284   -0.4931623194    1.9455432440
C        3.7709643461   -3.7003297155   -0.5722057154
C        4.0721904686   -2.2124489042   -0.2583614996
N        5.7330678456   -4.7471106780   -1.9764474189
N        4.1894258705   -1.4787140580   -1.5269879864
N        3.9493254437   -2.1549267505    2.8030704872
O        4.5576713023   -3.1424260034    2.3700637180
O        4.1664995522   -1.6233184520    3.8943894467
F       -0.2891853825    0.0526731514    2.6079840838
H        1.8571145975   -1.0768237008   -1.2006973636
H       -0.1070150678   -0.1060352860    0.0147081096
H        1.8258073326   -0.9674300088    3.7556616956
H        2.8464438503   -3.7694226207   -1.1539025748
H        3.6429109312   -4.2538264204    0.3594998293
H        4.9929483837   -2.1856873544    0.3325558034
H        4.9101718185   -1.9149896382   -2.1020383510
H        4.5040171043   -0.5273226209   -1.3417573724
23   
Generated by ForceBalance from scan.xyz: Frame 17 of 24
C        4.9391126674   -4.3593147808   -1.1560927114
C        1.8117713095   -1.0543056425   -0.1030671428
C        0.7332424787   -0.5038667393    0.5876998010
C        1.8306092223   -1.0230518826    2.6884805523
C        2.9114345701   -1.6240568497    0.5582283675
C        2.8784014896   -1.5983897702    1.9640417902
C        0.7636146879   -0.4948438481    1.9793854519
C        3.7596128539   -3.6895111362   -0.5998533192
C        4.0481635256   -2.2001425068   -0.2775398054
N        5.8908226691   -4.8403429128   -1.6206431130
N        4.1438253708   -1.4720345002   -1.5553459574
N        3.9598844246   -2.1866325651    2.7763795561
O        4.5575137028   -3.1682575564    2.3169052160
O        4.1915064728   -1.6774518198    3.8755996944
F       -0.2704537285    0.0461347674    2.6604067811
H        1.8291436189   -1.0403604156   -1.1873281618
H       -0.1171014302   -0.0777891407    0.0641581603
H        1.8530312773   -0.9985381656    3.7714942746
H        2.9553996324   -3.7316937135   -1.3426231377
H        3.4143853516   -4.2150903729    0.2914023748
H        4.9893912824   -2.1595488364    0.2783282686
H        4.8541310482   -1.9175960678   -2.1368377449
H        4.4738481679   -0.5235519861   -1.3803432658
23   
Generated by ForceBalance from scan.xyz: Frame 18 of 24
C        5.0033898661   -4.3957482468   -0.9290343703
C        1.7923034063   -1.0196311767   -0.1007644238
C        0.7212774005   -0.4816325315    0.6118317380
C        1.8377438829   -1.0488407946    2.6903620305
C        2.8971645185   -1.6050367308    0.5370789514
C        2.8774706514   -1.6094440608    1.9436544895
C        0.7650928698   -0.5033448861    2.0028239448
C        3.7661915665   -3.6708400254   -0.6311483972
C        4.0246385546   -2.1700858617   -0.3164573818
N        6.0017134769   -4.9296739384   -1.1954074245
N        4.0835968842   -1.4514644800   -1.6049455007
N        3.9658938856   -2.2189035830    2.7302892554
O        4.5695819388   -3.1767889691    2.2310863700
O        4.1970098660   -1.7500873851    3.8476252021
F       -0.2615861720    0.0238030694    2.7056626437
H        1.7974932674   -0.9860105933   -1.1845726313
H       -0.1331877283   -0.0430056168    0.1056075364
H        1.8706103732   -1.0484326298    3.7733807800
H        3.1181086322   -3.7173094020   -1.5141787544
H        3.2207233445   -4.1575626046    0.1782134836
H        4.9814865898   -2.0988810693    0.2076532565
H        4.7832059682   -1.9004355297   -2.1967641191
H        4.4179511432   -0.5012538379   -1.4461781076
23   
Generated by ForceBalance from scan.xyz: Frame 19 of 24
C        5.0068127311   -4.4250190641   -0.6658352669
C        1.7764458396   -0.9838993253   -0.0560671340
C        0.7217816903   -0.4522453483    0.6853208499
C        1.8817608099   -1.0458965014    2.7322763785
C        2.8947592979   -1.5771002493    0.5507474769
C        2.9046045725   -1.5987855999    1.9572306525
C        0.7958882459   -0.4898917197    2.0745192261
C        3.7692827275   -3.6439723915   -0.6415866887
C        4.0046839991   -2.1326370850   -0.3323317710
N        6.0077479680   -5.0140482000   -0.7237858794
N        4.0151595076   -1.4150576422   -1.6248900866
N        4.0074824087   -2.2220574515    2.7114872367
O        4.6034817742   -3.1667962076    2.1800361674
O        4.2583690504   -1.7765389853    3.8342832264
F       -0.2140982725    0.0313545575    2.8054550858
H        1.7557531403   -0.9410036079   -1.1392360004
H       -0.1428405624   -0.0071924203    0.2024444191
H        1.9376582632   -1.0595543163    3.8142518502
H        3.3063311442   -3.7065780999   -1.6334611982
H        3.0456446208   -4.0865192271    0.0448496558
H        4.9763744436   -2.0368177091    0.1589412542
H        4.7155458997   -1.8464925810   -2.2285291539
H        4.3290359132   -0.4562196528   -1.4739754526
23   
Generated by ForceBalance from scan.xyz: Frame 20 of 24
C        4.9093500490   -4.4975491114   -0.4861492530
C        1.7582521946   -1.0225585997   -0.0660913074
C        0.7027701599   -0.5102580650    0.6871727789
C        1.9010215985   -1.0700277610    2.7200505536
C        2.8973553027   -1.5901655712    0.5280280721
C        2.9243383713   -1.6054669517    1.9331302332
C        0.7948136515   -0.5394832724    2.0757392066
C        3.7658736740   -3.6220259607   -0.7472625841
C        4.0060297279   -2.1205636736   -0.3737963027
N        5.8341395096   -5.1852480299   -0.3325425263
N        4.0107638353   -1.3481319549   -1.6350754156
N        4.0459428343   -2.2089175844    2.6740928064
O        4.6245671863   -3.1676371016    2.1500486170
O        4.3238129415   -1.7362484381    3.7795505763
F       -0.2167312773   -0.0364360167    2.8173565094
H        1.7215031380   -0.9820695900   -1.1490284790
H       -0.1771751114   -0.0855838174    0.2137667907
H        1.9718875324   -1.0793307774    3.8012509927
H        3.5534671592   -3.6642747116   -1.8213345381
H        2.8665678166   -4.0129579037   -0.2662322296
H        4.9767467408   -2.0468566095    0.1225780999
H        4.7470197971   -1.7157600012   -2.2377315895
H        4.2675769366   -0.3811069306   -1.4356631595
23   
Generated by ForceBalance from scan.xyz: Frame 21 of 24
C        5.5547216391   -0.9995349922   -1.5367081477
C        1.9489302996   -1.2427359147   -0.2339698214
C        0.8290180440   -0.6033199101    0.3016316414
C        1.7059074663   -0.9990109905    2.5337793923
C        2.9789733777   -1.7473539636    0.5707154048
C        2.8256660435   -1.5941136126    1.9571000886
C        0.7266717303   -0.4983189958    1.6840237430
C        5.4132618477   -1.5519955526   -0.1846126253
C        4.1488853930   -2.4681707420   -0.0822428161
N        5.6271251603   -0.5751716149   -2.6173766475
N        4.4730763897   -3.6763256700    0.6810907254
N        3.8715036686   -2.0237029409    2.9116143104
O        3.5312545471   -2.7894717284    3.8124405462
O        4.9925621427   -1.5286441199    2.7760918902
F       -0.3576514352    0.1002569537    2.2244521414
H        2.0261258995   -1.3566234783   -1.3118316298
H        0.0423163267   -0.2068605176   -0.3322357677
H        1.6038182002   -0.9189592689    3.6105972457
H        6.3138861390   -2.1194147986    0.0671312725
H        5.3531164948   -0.7218317293    0.5195219751
H        3.8238006164   -2.6822883770   -1.1094495954
H        5.2660448910   -4.1590609640    0.2623136369
H        3.6846023211   -4.3209860145    0.6590955152
23   
Generated by ForceBalance from scan.xyz: Frame 22 of 24
C        5.3280234347   -0.8178241407   -1.4496702525
C        1.9936397287   -1.2714466827   -0.2652021072
C        0.8839711123   -0.5976813016    0.2478528699
C        1.7292239204   -0.9721253117    2.4954475514
C        3.0038873378   -1.7869662012    0.5582224301
C        2.8396824499   -1.6031464629    1.9391530719
C        0.7699112222   -0.4655356233    1.6269926761
C        5.4195218740   -1.6143532041   -0.2196867362
C        4.1696802711   -2.5346137986   -0.0749373794
N        5.2095391910   -0.2035672004   -2.4302240202
N        4.5134818742   -3.7043867727    0.7326186637
N        3.8623317083   -2.0407765087    2.9163212234
O        3.5045718976   -2.8325510702    3.7871877064
O        4.9792318142   -1.5259718819    2.8297993445
F       -0.3060616149    0.1664669766    2.1457973412
H        2.0812494156   -1.4005347710   -1.3403485709
H        0.1143028088   -0.1928334535   -0.4013642283
H        1.6187585444   -0.8691481395    3.5695860335
H        6.3348304566   -2.2133700215   -0.2543056172
H        5.4917968951   -0.9283136736    0.6251094980
H        3.8339351444   -2.7807439963   -1.0926172265
H        5.3023602658   -4.2028080001    0.3253186888
H        3.7281899320   -4.3523520392    0.7600401925
23   
Generated by ForceBalance from scan.xyz: Frame 23 of 24
C        3.3143362851   -4.5303846078   -0.3120714675
C        2.0030056960   -0.8867936207   -0.0595114677
C        0.8965683454   -0.3984788431    0.6319154974
C        1.7785472861   -1.3610476891    2.6793237423
C        3.0295625190   -1.6027582957    0.5769128665
C        2.8905846841   -1.8043540207    1.9583677427
C        0.8006326299   -0.6545374544    1.9972554417
C        3.5846294561   -3.3504082968   -1.1435609534
C        4.1446298786   -2.1827180152   -0.2877139741
N        3.1016277161   -5.4407065597    0.3791919607
N        4.6366666543   -1.1447175967   -1.2059879958
N        3.9332021243   -2.4713219275    2.7699991790
O        3.5565501867   -3.1841064710    3.7000375463
O        5.1161381011   -2.2350892342    2.4935217811
F       -0.2717969173   -0.1974498296    2.6805963283
H        2.0945909150   -0.7044054703   -1.1256063376
H        0.1147187737    0.1642604620    0.1314230394
H        1.6911963563   -1.5554950954    3.7418226269
H        4.3015075859   -3.6249726776   -1.9242196387
H        2.6456284021   -3.0593942109   -1.6219233827
H        4.9125479873   -2.5904881481    0.3703616688
H        5.4378938411   -1.5047319078   -1.7238712685
H        4.9801867829   -0.3553301421   -0.6599075055
23   
Generated by ForceBalance from scan.xyz: Frame 24 of 24
C        2.7513695292   -4.3210994065   -0.8425442527
C        1.7281585389   -1.2504707626   -0.0479529826
C        0.6253549303   -0.7205069981    0.6196217632
C        1.7740990401   -1.0317596331    2.7321670558
C        2.8806884868   -1.6790905169    0.6250633856
C        2.8702841579   -1.5253115378    2.0210101814
C        0.6632721875   -0.6292928539    2.0077712788
C        3.5815444018   -3.2028784801   -1.3034301618
C        4.0469563247   -2.2971080853   -0.1404275894
N        2.0894014296   -5.1960297149   -0.4578132058
N        4.8724688886   -1.2250386007   -0.7141973138
N        4.0572602211   -1.8440265368    2.8374283835
O        3.8720297711   -2.3082277769    3.9631413503
O        5.1699241858   -1.5919742347    2.3534121212
F       -0.4034571551   -0.1290259999    2.6680459855
H        1.6847509963   -1.3296835958   -1.1280902574
H       -0.2574449756   -0.3900680086    0.0815222622
H        1.7990943665   -0.9544425553    3.8128000478
H        4.4635551990   -3.6104588183   -1.8090420474
H        3.0225274547   -2.6307366046   -2.0476507243
H        4.5944561842   -2.9440112248    0.5544322157
H        5.7020998890   -1.6340557656   -1.1451003399
H        5.2129543141   -0.6461734679    0.0528230355
