37

C      1.88054   -0.25071    4.48577
C      0.89657   -2.12564    5.65322
C      2.17775   -1.07981    3.40463
C      1.19738   -2.95142    4.57282
C      1.23233   -0.76208    5.62336
C      1.83350   -2.43907    3.43247
C      0.88800    0.08885    6.80692
C     -0.38986   -5.55335    0.45888
C     -0.72618   -4.68598    1.68063
C      1.08810   -5.41904    0.06393
C     -0.32156   -3.22062    1.45545
C      1.48380   -3.95051   -0.15300
C      1.15987   -3.05841    1.06257
C      1.26403    1.56043    6.78192
C      2.12547   -3.32488    2.23742
O      0.31263   -0.39022    7.77849
O      3.45179   -3.09281    1.73245
H      2.15694    0.79823    4.43704
H      0.40174   -2.51542    6.53742
H      2.68500   -0.68056    2.53090
H      0.93224   -4.00587    4.61019
H     -1.01621   -5.23581   -0.38654
H     -0.63931   -6.60266    0.65675
H     -1.79850   -4.74141    1.90168
H     -0.21213   -5.08716    2.56398
H      1.71787   -5.86442    0.84521
H      1.28785   -5.99148   -0.84952
H     -0.92841   -2.81458    0.63560
H     -0.55591   -2.61908    2.33945
H      2.54575   -3.87064   -0.39846
H      0.92534   -3.55929   -1.01423
H      1.32817   -2.01243    0.77593
H      0.78339    2.07253    5.94133
H      2.34598    1.68617    6.66640
H      0.94407    2.02234    7.71652
H      2.03792   -4.37197    2.55557
H      4.07290   -3.21846    2.46743
