37

C      0.75914   -1.63080    5.56688
C      2.59958   -0.34682    4.66813
C      0.93961   -2.58256    4.56338
C      2.77415   -1.29713    3.66527
C      1.58875   -0.49876    5.63199
C      1.94342   -2.42649    3.59814
C      1.44001    0.55012    6.69035
C      2.26877   -2.92232   -1.41853
C      2.22378   -4.29290   -0.72847
C      2.37909   -1.78536   -0.39297
C      1.08792   -4.36183    0.30472
C      1.23283   -1.84681    0.62821
C      1.09733   -3.21149    1.33512
C      0.33799    0.39264    7.72425
C      2.09674   -3.45472    2.48994
O      2.19090    1.51940    6.72384
O      3.43578   -3.49151    1.97959
H     -0.02656   -1.78056    6.30107
H      3.23641    0.53080    4.72429
H      0.29448   -3.45850    4.53066
H      3.55240   -1.16994    2.91867
H      1.35378   -2.78431   -2.01315
H      3.10864   -2.88156   -2.12233
H      2.08219   -5.08525   -1.47389
H      3.18012   -4.47993   -0.23222
H      3.33953   -1.85758    0.12642
H      2.35748   -0.81449   -0.90305
H      0.12878   -4.31809   -0.22957
H      1.10722   -5.32747    0.82600
H      1.33215   -1.04466    1.36642
H      0.28817   -1.65928    0.09956
H      0.12043   -3.21892    1.83652
H      0.46552   -0.53447    8.29357
H     -0.64577    0.34979    7.24448
H      0.37053    1.24236    8.40699
H      1.84736   -4.44148    2.91090
H      4.02781   -3.70337    2.71910
