29   

C        2.3219841824   -3.3712508485    0.4960268390
C        3.1980879570   -2.5967555097    1.2589214426
C        0.9444909914   -3.2465323867    0.6855517646
C        2.6974110174   -1.7147395468    2.2231506994
C        0.4430364233   -2.3633363012    1.6479068447
C       -0.1732080925   -3.4794712337    5.7545220084
C        0.4099953883   -4.7286750149    5.9782935239
C       -1.1141678560   -4.3115251524    3.6966384670
C        1.3108384069   -1.6114618286    2.4591259217
C       -0.9289129248   -3.2544243319    4.5999674166
C        0.2459841869   -5.7761942100    5.0635254085
C       -0.5292555260   -5.5651209652    3.9089755759
C        0.8672672910   -0.6482524085    3.4698439638
C       -0.3002261262   -0.4753195610    4.1185626354
O       -2.5075389412   -1.6522832345    3.0644312615
O       -2.4796982089   -1.2136900230    5.4588372777
S       -1.6897069308   -1.6261709856    4.2886914108
Cl       1.0009611713   -7.3235047427    5.3776898157
Cl      -0.7752458568   -6.8391781832    2.7340702058
H        2.7082143770   -4.0564432839   -0.2504784526
H        4.2677993566   -2.6790873197    1.1024960568
H        0.2596403490   -3.8251963775    0.0756770336
H        3.3994892771   -1.1232498601    2.8001744591
H       -0.6285528596   -2.2555328041    1.7178755916
H       -0.0401122516   -2.6824983085    6.4810568095
H        0.9979334775   -4.8947957670    6.8731351083
H       -1.7228778742   -4.1644468021    2.8088086277
H        1.6253976728    0.0750866566    3.7523496393
H       -0.4375556978    0.4185907531    4.7080481184
29   

C        2.1688343607   -3.5527241581    0.6818566226
C        3.0575564957   -2.9056269174    1.5439230770
C        0.8156371775   -3.2071296503    0.6938700358
C        2.5900918421   -1.9283867277    2.4300300133
C        0.3474866780   -2.2302053882    1.5793403206
C       -0.1067480367   -3.4262276485    5.7116445482
C        0.5520062874   -4.6442836110    5.8954606697
C       -0.9822009080   -4.2416774773    3.6188505792
C        1.2209392305   -1.6029353583    2.4840970223
C       -0.8669585110   -3.2074563283    4.5590782849
C        0.4603952857   -5.6659304642    4.9418052313
C       -0.3206318560   -5.4626105107    3.7900008978
C        0.7885850688   -0.5637590292    3.4267177528
C       -0.3743241938   -0.4020685206    4.0822573255
O       -2.5500087184   -1.6655975041    3.0764309005
O       -2.4861119825   -1.2414131449    5.4755074229
S       -1.7080324726   -1.6125062659    4.2835266164
Cl       1.3135025624   -7.1714061927    5.2033786897
Cl      -0.4755919701   -6.7037261284    2.5653274714
H        2.5293686002   -4.3122789752   -0.0030039565
H        4.1107995012   -3.1622217138    1.5259427032
H        0.1270623647   -3.6894270012    0.0089752751
H        3.2961978540   -1.4382419558    3.0909809765
H       -0.6971881750   -1.9508714024    1.5311619470
H       -0.0262255932   -2.6475483421    6.4652280563
H        1.1448513834   -4.8053863143    6.7878961481
H       -1.5897313758   -4.0980252595    2.7297299410
H        1.5488495643    0.1717465591    3.6693984249
H       -0.5409549630    0.5037445521    4.6452123880
29   

C        1.9549458986   -3.7090778552    0.8287371291
C        2.8092434343   -3.2513791410    1.8357839804
C        0.7022861025   -3.1143036968    0.6568781571
C        2.4073416923   -2.2072085649    2.6767166036
C        0.2978611146   -2.0741343072    1.5007338994
C       -0.0855475200   -3.3881881244    5.6851531702
C        0.6453077516   -4.5679278857    5.8470167529
C       -0.8669946543   -4.1929794140    3.5515423798
C        1.1372304989   -1.6222771799    2.5329554373
C       -0.8331738143   -3.1813100753    4.5221449910
C        0.6383508297   -5.5628918713    4.8611653860
C       -0.1335552375   -5.3750194108    3.7008779438
C        0.7369044206   -0.5324933946    3.4406843584
C       -0.4296955076   -0.3681635046    4.0831935455
O       -2.5434600498   -1.6833732064    3.0239584985
O       -2.5424271662   -1.2831082757    5.4336349409
S       -1.7323737074   -1.6162811905    4.2516261660
Cl       1.5877039823   -7.0148716551    5.0914711554
Cl      -0.1827709453   -6.5837759363    2.4355913119
H        2.2647281755   -4.5199733210    0.1787945796
H        3.7838664611   -3.7080750550    1.9659531938
H        0.0420506118   -3.4570205291   -0.1320978369
H        3.0802820073   -1.8656593411    3.4551652986
H       -0.6703882702   -1.6121018816    1.3394097653
H       -0.0649518725   -2.6268165790    6.4600953024
H        1.2318413523   -4.7181280523    6.7454818999
H       -1.4586631496   -4.0561527566    2.6507426172
H        1.5146729878    0.1855169657    3.6800890322
H       -0.6160826421    0.5357163014    4.6427850421
29   

C        1.8470961965   -3.7479865671    0.8905585708
C        2.6266751816   -3.3936496678    1.9955929575
C        0.6929159749   -3.0186532861    0.5911474308
C        2.2526323354   -2.3112453346    2.8003170364
C        0.3160386635   -1.9403291032    1.3990654837
C       -0.0780446732   -3.3634871243    5.6552004546
C        0.6731323796   -4.5294631987    5.8249140286
C       -0.8014808174   -4.1711225077    3.5019725673
C        1.0907881315   -1.5767877120    2.5123706319
C       -0.8076234989   -3.1650706479    4.4790925342
C        0.7023441533   -5.5202381260    4.8352950175
C       -0.0518534340   -5.3419393421    3.6619422916
C        0.6919943487   -0.4564548508    3.3922654672
C       -0.4509102876   -0.3416796510    4.0807140972
O       -2.5003330958   -1.6862031985    2.9417976989
O       -2.5849462587   -1.3128040742    5.3566048809
S       -1.7321177309   -1.6162843232    4.1967857916
Cl       1.6752470096   -6.9547871085    5.0765406924
Cl      -0.0587060703   -6.5489408450    2.3938951873
H        2.1349467166   -4.5884914545    0.2687472142
H        3.5195103790   -3.9617313854    2.2311615608
H        0.0854140888   -3.2895317098   -0.2652441396
H        2.8615019362   -2.0519177905    3.6590251392
H       -0.5843754916   -1.3836825017    1.1579397522
H       -0.0862670806   -2.6057379534    6.4338761789
H        1.2466824276   -4.6725418067    6.7329307458
H       -1.3745096919   -4.0381033252    2.5885999036
H        1.4529239314    0.2934893058    3.5827668869
H       -0.6456751734    0.5391644781    4.6730843551
29   

C        2.0813725397   -3.2008466434    0.8074018015
C        2.3631404742   -3.9910257198    1.9260862012
C        1.8245952328   -1.8357178421    0.9663915393
C        2.3931614368   -3.4154900668    3.2016116832
C        1.8528187106   -1.2614703176    2.2419950975
C       -0.8249599325   -3.9144840320    4.9266743679
C       -0.9392677025   -5.1887024201    4.3641925302
C       -1.0269350290   -2.9506683864    2.7257496057
C        2.1472752585   -2.0436623913    3.3688127183
C       -0.8487811665   -2.7820154817    4.1067100377
C       -1.0924930523   -5.3570578377    2.9821336933
C       -1.1462920770   -4.2223221603    2.1533211561
C        2.1380856025   -1.4559277123    4.7318931350
C        1.0608777457   -1.0821932333    5.4302754968
O       -0.8100362973   -0.0829103366    3.7617260382
O       -1.5529502829   -0.9114978201    5.9397609290
S       -0.6372760727   -1.1084860694    4.8050403272
Cl      -1.2111842072   -6.9708679416    2.3155607416
Cl      -1.3458030331   -4.3719376371    0.4204236800
H        2.0532659486   -3.6474115578   -0.1804072057
H        2.5505857637   -5.0519552022    1.8050185788
H        1.5967045759   -1.2211485517    0.1025837236
H        2.5999742664   -4.0397075328    4.0635296917
H        1.6362645918   -0.2039909055    2.3590256909
H       -0.7087825447   -3.8048916963    6.0014256834
H       -0.9079798950   -6.0636490248    5.0025753592
H       -1.0585086145   -2.0797775786    2.0768792529
H        3.0902631920   -1.4455589941    5.2524441523
H        1.1602148334   -0.7227327031    6.4429667112
29   

C        2.1000518029   -3.2793139251    0.8611379218
C        2.2728563746   -4.0141864703    2.0381564953
C        1.9395876426   -1.8916800024    0.9241368208
C        2.2877670053   -3.3612636486    3.2760795398
C        1.9576217229   -1.2397511948    2.1622194085
C       -0.7993458611   -3.9544133754    4.9175731959
C       -0.9079175943   -5.2112130457    4.3153868295
C       -1.0269144372   -2.9230552432    2.7494925571
C        2.1401816937   -1.9678322427    3.3463124774
C       -0.8393841174   -2.7967139846    4.1339047470
C       -1.0729532514   -5.3367517382    2.9299806760
C       -1.1430408880   -4.1767589539    2.1381581479
C        2.1264060470   -1.2895134311    4.6700026622
C        1.0602188145   -1.0368348903    5.4342764506
O       -0.9285511260   -0.0924973143    3.8834854167
O       -1.5321203138   -1.0224143680    6.0613373053
S       -0.6601473415   -1.1413631578    4.8820196718
Cl      -1.1860846018   -6.9292809045    2.2131682322
Cl      -1.3591720174   -4.2726948195    0.4034198600
H        2.0811034483   -3.7856027083   -0.0976664753
H        2.3855044419   -5.0914510240    1.9915497204
H        1.7953896091   -1.3200184631    0.0141076277
H        2.4097672368   -3.9405692453    4.1842884942
H        1.8174363289   -0.1643480485    2.2057762599
H       -0.6787606178   -3.8778262117    5.9947736949
H       -0.8652228450   -6.1059672678    4.9250738713
H       -1.0718272843   -2.0321833581    2.1290417503
H        3.0997504768   -1.0566331958    5.0897351584
H        1.1829318421   -0.6685393415    6.4412304247
29   

C        2.7882034762   -4.2958059794    2.0007433645
C        3.1455480909   -4.1035787901    3.3386522359
C        2.0480959700   -3.3162154852    1.3323768798
C        2.7582741725   -2.9364868623    4.0068926939
C        1.6645355524   -2.1491645543    2.0025463145
C       -0.3983019300   -4.1793664473    3.9962148188
C       -0.7766741688   -4.8744879813    2.8471935505
C       -1.7264319218   -2.2989372089    3.2794111840
C        2.0025143710   -1.9545791265    3.3505991127
C       -0.8572228873   -2.8759104082    4.2152304136
C       -1.6182770412   -4.2878163554    1.8958642513
C       -2.1039018021   -2.9853306270    2.1172197368
C        1.6164645780   -0.7049149725    4.0536402430
C        0.6689720958   -0.5680780713    4.9868592657
O       -1.4469301054   -1.3783447603    6.4010268938
O        0.5584493853   -2.7740325482    6.5355478242
S       -0.2950814641   -1.9359403451    5.6753892029
Cl      -2.0408286363   -5.1815150841    0.4517962297
Cl      -3.1576883060   -2.2037080874    0.9588320962
H        3.0870516650   -5.1998688798    1.4819363148
H        3.7238754719   -4.8573367133    3.8612794447
H        1.7695141845   -3.4599503621    0.2944047612
H        3.0369630449   -2.7967552886    5.0469344093
H        1.0901546603   -1.3963229102    1.4741580881
H        0.2716862195   -4.6465065430    4.7137152039
H       -0.4029245576   -5.8779236725    2.6826399468
H       -2.1057692385   -1.2947236066    3.4431493269
H        2.0702261374    0.2074695780    3.6802027126
H        0.4269321226    0.4032762182    5.3900891629
29   

C        2.8472750660   -4.2854437815    2.0180410432
C        3.0671712525   -4.1107423771    3.3872501720
C        2.2081782391   -3.2819907927    1.2844805028
C        2.6400282118   -2.9390194823    4.0219433503
C        1.7874012294   -2.1085318766    1.9203460987
C       -0.4114978213   -4.1919997510    3.9948383686
C       -0.8038945961   -4.8720486244    2.8414807781
C       -1.7303543832   -2.2944564159    3.3076175070
C        1.9831324431   -1.9310626064    3.2986739001
C       -0.8573196757   -2.8869193522    4.2298498924
C       -1.6495860044   -4.2696165888    1.9036027677
C       -2.1240112876   -2.9662563405    2.1426823561
C        1.5350846803   -0.6883072074    3.9660982485
C        0.6707270690   -0.5830064508    4.9832800024
O       -1.4105794457   -1.4096040008    6.4388620238
O        0.5997491468   -2.8000575602    6.5279662049
S       -0.2711094939   -1.9591311960    5.6881692036
Cl      -2.0924199948   -5.1455396646    0.4547452861
Cl      -3.1836009550   -2.1652727476    1.0029564863
H        3.1753048081   -5.1941166377    1.5255834305
H        3.5697705685   -4.8815352420    3.9608831613
H        2.0368036388   -3.4125176834    0.2218365963
H        2.8191965246   -2.8147398261    5.0855614783
H        1.2899085833   -1.3394691697    1.3399227793
H        0.2595645113   -4.6720919060    4.7026478899
H       -0.4392865642   -5.8765087888    2.6632117591
H       -2.0997427191   -1.2887239540    3.4841816208
H        1.8587179294    0.2400395619    3.5065049713
H        0.4397802257    0.3813942651    5.4091876451
29   

C        2.9380218043   -4.2200649534    1.9827466143
C        2.9751297850   -4.1078193918    3.3746963464
C        2.4431635893   -3.1625100244    1.2157392966
C        2.5064765156   -2.9457302140    3.9975422686
C        1.9813302777   -1.9986238221    1.8405277435
C       -0.4718806775   -4.1819727743    4.0737564505
C       -0.8817499044   -4.8996549821    2.9495806920
C       -1.7545827192   -2.2875337268    3.3139430375
C        1.9906428089   -1.8803797955    3.2396474813
C       -0.8906641656   -2.8597435134    4.2570251171
C       -1.7207731838   -4.3192619757    1.9918280102
C       -2.1677513021   -2.9979799811    2.1794465955
C        1.4740279099   -0.6565091255    3.8779540664
C        0.6641752122   -0.5463310133    4.9421104181
O       -1.4354670795   -1.3003581829    6.4078367560
O        0.5505134148   -2.7130329664    6.5623727567
S       -0.2984499035   -1.8894644955    5.6841636631
Cl      -2.1928845769   -5.2459908911    0.5843969472
Cl      -3.2206057481   -2.2239061279    1.0151544331
H        3.2976932625   -5.1214626502    1.4990727901
H        3.3709493400   -4.9189711995    3.9755976547
H        2.4150734072   -3.2439927211    0.1349102650
H        2.5619644252   -2.8718887913    5.0783546201
H        1.5945846295   -1.1900985429    1.2301393781
H        0.1876346115   -4.6487117256    4.8010726188
H       -0.5398461399   -5.9183362991    2.8112014381
H       -2.1051393600   -1.2691501953    3.4522047205
H        1.7215152204    0.2721490269    3.3737826197
H        0.4564298271    0.4247864574    5.3649192503
29   

C        3.0356937691   -4.0342071405    1.7318512660
C        2.7686604566   -4.1483611955    3.0970689677
C        2.8213214482   -2.8153602056    1.0865348116
C        2.2771234725   -3.0503917830    3.8117232414
C        2.3318059502   -1.7182870961    1.8038598133
C       -0.6796137500   -4.3060178623    4.3342637784
C       -1.1066452522   -5.1047295845    3.2725785355
C       -1.5975915026   -2.3705756257    3.2272973486
C        2.0358168978   -1.8186730847    3.1748676121
C       -0.9101884741   -2.9258352151    4.3149543388
C       -1.7733859510   -4.5475327862    2.1754843868
C       -2.0244995344   -3.1629693183    2.1540331697
C        1.4875024921   -0.6491378751    3.8708062028
C        0.6529315345   -0.5596063127    4.9213517992
O       -1.4772106859   -1.2549635352    6.3674965300
O        0.4918377089   -2.6577784562    6.6277050610
S       -0.3297082278   -1.8751072562    5.6884389596
Cl      -2.2816314360   -5.5825134039    0.8589337698
Cl      -2.8566876272   -2.4137406408    0.8088611646
H        3.4145952199   -4.8854364707    1.1771827613
H        2.9498237983   -5.0870942078    3.6082246856
H        3.0318859456   -2.7196615874    0.0272297868
H        2.1182378111   -3.1656501040    4.8757632725
H        2.1656460693   -0.7842270995    1.2787014757
H       -0.1628765409   -4.7589246674    5.1769758701
H       -0.9192201614   -6.1716828098    3.2950425562
H       -1.8019411834   -1.3046723307    3.2039119928
H        1.7649797744    0.3052573591    3.4347804495
H        0.4490890168    0.4115395821    5.3465336139
29   

C        3.3430620247   -3.9362747177    1.7049033790
C        2.8302574875   -4.1449011245    2.9852720182
C        3.2552585041   -2.6701538248    1.1267458013
C        2.2226000431   -3.0939809021    3.6813657899
C        2.6480836684   -1.6207298413    1.8248239656
C       -0.7890211128   -4.3438178859    4.3988539233
C       -1.3004591883   -5.1636556643    3.3915991321
C       -1.7282487512   -2.4208319884    3.2877314787
C        2.1088345871   -1.8098534557    3.1117901053
C       -0.9889711574   -2.9594502739    4.3497404944
C       -2.0230028790   -4.6240227721    2.3211489745
C       -2.2412393851   -3.2347874068    2.2698118332
C        1.4424836690   -0.6768155944    3.7569882841
C        0.6016603581   -0.5815683806    4.8046188615
O       -1.4304765815   -1.2475129135    6.3941953104
O        0.5507187922   -2.6439549317    6.5701367625
S       -0.3237185660   -1.8816583272    5.6626889291
Cl      -2.6427805199   -5.6863979883    1.0760343449
Cl      -3.1422916336   -2.5067180424    0.9576225573
H        3.8126243610   -4.7513212271    1.1654069904
H        2.9102258565   -5.1223412452    3.4473602722
H        3.6552704785   -2.5002069650    0.1333927739
H        1.8803644374   -3.2988574684    4.6836180925
H        2.5859953237   -0.6502212580    1.3451156473
H       -0.2363901965   -4.7846559999    5.2251554212
H       -1.1394931968   -6.2342535431    3.4375883260
H       -1.9114131286   -1.3516772309    3.2431176365
H        1.6712496620    0.2821638048    3.3032187398
H        0.3528718053    0.4011986979    5.1760522072
29   

C        2.8480712294   -2.1961536979    0.3981668528
C        1.4892028465   -2.1444753461    0.7054629592
C        3.7858452628   -1.8886660350    1.3823720467
C        1.0691152271   -1.7926639028    1.9932226473
C        3.3631078555   -1.5369402448    2.6687562946
C       -0.7088043455   -4.1787267010    5.3647737265
C       -0.6498525545   -5.5529667194    5.1236735867
C       -1.4878134856   -3.8357277851    3.1090520830
C        1.9959776804   -1.4836688375    3.0097179211
C       -1.1133481141   -3.3028360976    4.3517918084
C       -0.9990431435   -6.0817977440    3.8754063433
C       -1.4266993283   -5.2116588857    2.8559919628
C        1.6517682300   -1.1550317751    4.3938911743
C        0.5039679391   -1.0449878674    5.0926639046
O       -1.6783803537   -0.7796819255    3.4766784400
O       -2.0412693699   -1.2538243889    5.8384083811
S       -1.1947434639   -1.5059921038    4.6623646950
Cl      -0.9045159055   -7.8096768762    3.6128377740
Cl      -1.8860244609   -5.8178632343    1.2794363009
H        3.1721086281   -2.4701112490   -0.5997401296
H        0.7535175846   -2.3732255680   -0.0575270109
H        4.8443984350   -1.9248698741    1.1505888822
H        0.0082190194   -1.7504842125    2.1582108150
H        4.1205472634   -1.3111645008    3.4110537302
H       -0.4429975976   -3.7918844209    6.3448533000
H       -0.3323759262   -6.2242756231    5.9129506915
H       -1.8399793690   -3.1768476787    2.3201867276
H        2.5178851014   -0.9047291357    4.9978011933
H        0.5606552608   -0.6500560962    6.0958421990
29   

C        2.5736849431   -2.6839639247    0.6593021356
C        1.2555719255   -2.2934908292    0.8950720677
C        3.5375603808   -2.4842005372    1.6474878349
C        0.9003021654   -1.7157603927    2.1189710360
C        3.1794378713   -1.9071403609    2.8708322619
C       -0.3691335118   -4.1255209573    5.3946995874
C       -0.1332945386   -5.4673098717    5.0871034250
C       -1.3048654125   -3.8082827581    3.1955271382
C        1.8521548331   -1.5215584822    3.1399369982
C       -0.9432285329   -3.2776108236    4.4427478436
C       -0.4701478121   -5.9902926791    3.8325310948
C       -1.0667226873   -5.1497495321    2.8753937782
C        1.5406387527   -0.9859316772    4.4666903558
C        0.3870297600   -0.8071182444    5.1389706228
O       -1.9173507647   -0.8442200084    3.7015101674
O       -2.0348863132   -1.4125558213    6.0649129603
S       -1.2494823008   -1.5207458197    4.8260536258
Cl      -0.1491000920   -7.6751232728    3.4845432542
Cl      -1.5153414115   -5.7491723438    1.2931467855
H        2.8478322112   -3.1336313027   -0.2886232400
H        0.5048278096   -2.4302338173    0.1247122827
H        4.5647977053   -2.7812617141    1.4682990900
H       -0.1209707575   -1.3886217251    2.2346831998
H        3.9483193808   -1.7760933934    3.6240787237
H       -0.1071441784   -3.7418897636    6.3769812710
H        0.3157329350   -6.1177029516    5.8283052899
H       -1.7799848562   -3.1721347944    2.4538520761
H        2.4138717617   -0.6576073153    5.0211379790
H        0.4082332081   -0.2333355878    6.0531971749
29   

C        2.3664882915   -2.8757692160    0.7558580650
C        1.1397563784   -2.2298128888    0.9152052567
C        3.3043757706   -2.8399590641    1.7889284609
C        0.8467038009   -1.5625741660    2.1097194451
C        3.0091789587   -2.1708635903    2.9820139385
C       -0.2858979398   -4.0825226425    5.3889106886
C        0.0354717025   -5.4020841634    5.0621555866
C       -1.1456550670   -3.7639705476    3.1594797481
C        1.7694638624   -1.5350269365    3.1722012215
C       -0.8640178370   -3.2441786849    4.4312920112
C       -0.2182908907   -5.9114480261    3.7824222144
C       -0.8204915994   -5.0817187820    2.8196772004
C        1.4908088535   -0.8916382573    4.4613580667
C        0.3362431087   -0.7085524134    5.1266550653
O       -1.9683557703   -0.8637636850    3.7077725919
O       -2.0441645696   -1.4451456439    6.0722052245
S       -1.2624824030   -1.5089276027    4.8277308966
Cl       0.2137863938   -7.5657597928    3.4093747503
Cl      -1.1646783869   -5.6633696587    1.2049292456
H        2.5917827742   -3.3964207690   -0.1683147942
H        0.4140247799   -2.2391430803    0.1095923696
H        4.2612221853   -3.3351450957    1.6674510887
H       -0.0974536841   -1.0391684105    2.1829802631
H        3.7497627101   -2.1656299614    3.7739720344
H       -0.0845973499   -3.7075409591    6.3886818527
H        0.4889433298   -6.0450127990    5.8070415269
H       -1.6188333402   -3.1341693342    2.4113012982
H        2.3722573224   -0.5374015439    4.9861328389
H        0.3327735826   -0.0891636109    6.0107285602
29   

C        2.1199629833   -2.9629702955    0.8078097498
C        1.0734603650   -2.0427102575    0.9002676319
C        2.9595032563   -3.1693709324    1.9049590361
C        0.8578452998   -1.3431125841    2.0927729486
C        2.7461864699   -2.4635587416    3.0944564096
C       -0.2634985751   -4.0373161103    5.3840977378
C        0.1405498381   -5.3345754202    5.0587797960
C       -0.9880562274   -3.7172613703    3.1074356040
C        1.6814244415   -1.5556637811    3.2119421285
C       -0.8136308309   -3.2080137262    4.4023349138
C       -0.0030700005   -5.8306085244    3.7567881698
C       -0.5810296335   -5.0125625014    2.7697477201
C        1.4503236379   -0.8541780291    4.4870516315
C        0.2923686732   -0.6566461929    5.1360410143
O       -1.9499967631   -0.8558953052    3.6337998519
O       -2.1080277323   -1.4402905117    5.9997161063
S       -1.2800632429   -1.4856066209    4.7845117682
Cl       0.5379746370   -7.4528455633    3.3851242744
Cl      -0.7882763461   -5.5785658581    1.1262386844
H        2.2816831379   -3.5121359782   -0.1131675214
H        0.4259998939   -1.8694021826    0.0478676939
H        3.7746474567   -3.8807906746    1.8352688370
H        0.0491359682   -0.6215043799    2.1373740920
H        3.4025969440   -2.6423103973    3.9386535790
H       -0.1417879882   -3.6699448997    6.3994220817
H        0.5761015481   -5.9691857754    5.8212683259
H       -1.4323067715   -3.0923378496    2.3377945608
H        2.3446241706   -0.5214537383    5.0040318356
H        0.2665402125   -0.0296045013    6.0141419507
29   

C        2.0208840081   -2.9780072668    0.8330259479
C        1.1113551436   -1.9175836306    0.8655298556
C        2.7466067903   -3.3052101048    1.9815950576
C        0.9200584754   -1.1942870457    2.0480045003
C        2.5582390380   -2.5764618762    3.1614352949
C       -0.2693289719   -4.0091348523    5.3803048602
C        0.1552499454   -5.3037697092    5.0701855781
C       -0.9163259005   -3.6954108286    3.0791682563
C        1.6295380704   -1.5256280174    3.2132946678
C       -0.7917305750   -3.1845173594    4.3793335864
C        0.0574553671   -5.8027254741    3.7650683668
C       -0.4931782248   -4.9900879599    2.7581596508
C        1.4232965841   -0.7666093958    4.4665115469
C        0.2768085410   -0.6301812098    5.1448541026
O       -1.9034655601   -0.8370326242    3.5615221519
O       -2.1520918915   -1.4169373946    5.9239615953
S       -1.2795740845   -1.4627022945    4.7402178797
Cl       0.6223440265   -7.4214202499    3.4137280145
Cl      -0.6458564979   -5.5622722271    1.1107295961
H        2.1628744994   -3.5449400566   -0.0804164392
H        0.5499893462   -1.6555188672   -0.0244176409
H        3.4530309014   -4.1273097070    1.9587790490
H        0.2106185617   -0.3725043869    2.0587593070
H        3.1242899793   -2.8439158713    4.0465485287
H       -0.1834895164   -3.6397138060    6.3985312115
H        0.5706913753   -5.9342847637    5.8472270636
H       -1.3331488202   -3.0718389604    2.2932126338
H        2.3186737694   -0.3767785661    4.9398363745
H        0.2399370754   -0.0295032367    6.0407015676
29   

C        1.9873292095   -3.0004157821    0.8745428229
C        1.1729146360   -1.8650842560    0.8371573625
C        2.6057559583   -3.3720439784    2.0715760140
C        0.9729124730   -1.1076883991    1.9966991920
C        2.4056562539   -2.6113621408    3.2290635044
C       -0.2600714714   -4.0229994560    5.3990196597
C        0.1634067605   -5.3144772861    5.0735961110
C       -0.9072175262   -3.6820259101    3.1013700528
C        1.5741603006   -1.4811642216    3.2071219398
C       -0.7828921206   -3.1866747795    4.4078005795
C        0.0622091864   -5.7991971709    3.7633225031
C       -0.4888089605   -4.9748546888    2.7661836418
C        1.3733435136   -0.6667190348    4.4319323276
C        0.2687478577   -0.6225120063    5.1838498702
O       -1.9160055141   -0.8425285662    3.6172945855
O       -2.1440809522   -1.4425689031    5.9781651819
S       -1.2798041037   -1.4713441338    4.7877313149
Cl       0.6240551024   -7.4148046862    3.3932209675
Cl      -0.6474907470   -5.5304104392    1.1135491970
H        2.1373958356   -3.5920788901   -0.0217717042
H        0.6924137451   -1.5713645272   -0.0894558202
H        3.2371553837   -4.2527879868    2.1036188221
H        0.3339405139   -0.2306653431    1.9592922799
H        2.8885558117   -2.9102060426    4.1525582550
H       -0.1740519305   -3.6657697684    6.4215837305
H        0.5792935666   -5.9543309280    5.8427886970
H       -1.3212285337   -3.0478150673    2.3223458110
H        2.2515173179   -0.1573228344    4.8154069193
H        0.2458479648   -0.0465356310    6.0961683762
29   

C        2.0008391852   -3.1046214935    0.9056435220
C        1.2681838999   -1.9229134648    0.7620613936
C        2.5021757112   -3.4623799328    2.1601734043
C        1.0360326527   -1.1028048521    1.8720927091
C        2.2661108097   -2.6412954831    3.2684841152
C       -0.2208057465   -4.0657018302    5.3690217223
C        0.1883091999   -5.3473300567    4.9895443606
C       -0.9546328114   -3.6573536142    3.1082158593
C        1.5203713477   -1.4595771127    3.1377556883
C       -0.7798550064   -3.2005530348    4.4230727968
C        0.0353336019   -5.7937025649    3.6705292739
C       -0.5528419891   -4.9405463666    2.7199171142
C        1.2976309745   -0.5725293548    4.3104135501
C        0.2614730286   -0.5972849427    5.1532333188
O       -2.0314349741   -0.8788035231    3.7706963927
O       -2.0449009704   -1.5167821355    6.1298855889
S       -1.2802431690   -1.5035533218    4.8727092839
Cl       0.5799006023   -7.3979325322    3.2316405331
Cl      -0.7778846499   -5.4481968405    1.0595490226
H        2.1776069273   -3.7431825736    0.0471738744
H        0.8778678441   -1.6413557629   -0.2095823450
H        3.0696036914   -4.3790082050    2.2750933039
H        0.4636637529   -0.1884277627    1.7525321572
H        2.6585685263   -2.9280049843    4.2375583765
H       -0.0985889469   -3.7397483492    6.3984150552
H        0.6315960675   -6.0102667161    5.7231023749
H       -1.3981579644   -3.0006443865    2.3648110637
H        2.1082065411    0.1096602293    4.5458133096
H        0.2688116279    0.0038149222    6.0494908460
29   

C        3.0350048273   -3.5151677638    2.1410416697
C        1.9432043541   -3.0684517549    1.3899385104
C        3.3211148750   -2.9208097359    3.3741831340
C        1.1432099450   -2.0243885056    1.8682491589
C        2.5189658070   -1.8789296172    3.8530265529
C        0.1962206069   -4.2880695854    4.3854592279
C        0.1131318203   -5.3007769652    3.4293071301
C       -1.8098650522   -3.2957409731    3.4887832735
C        1.4311536507   -1.4136391991    3.0994111207
C       -0.7574965357   -3.2649389039    4.4138790970
C       -0.9186940323   -5.3152745630    2.4845229426
C       -1.8957803220   -4.3026429612    2.5176904119
C        0.5522199119   -0.3315478905    3.6110391879
C       -0.3455938780   -0.4263983433    4.5971876953
O       -1.8625139925   -1.7344786313    6.3626646952
O        0.5498562452   -2.1141563951    6.5033338012
S       -0.6061372306   -1.8994607943    5.6153627289
Cl      -0.9668887340   -6.5848935366    1.2810755444
Cl      -3.2067148896   -4.2720589805    1.3584866554
H        3.6561370694   -4.3226411943    1.7696165277
H        1.7125485771   -3.5338309479    0.4381835932
H        4.1629060850   -3.2670762073    3.9634632613
H        0.2923626134   -1.6936490168    1.2829982361
H        2.7383807609   -1.4319152214    4.8178692873
H        1.0161423308   -4.2854121337    5.0993279550
H        0.8654562274   -6.0800472129    3.4099146177
H       -2.5686409232   -2.5192434025    3.5088512841
H        0.5571915462    0.5918470093    3.0408538638
H       -0.9805080349    0.4101240985    4.8458745638
29   

C        3.0800696658   -3.5024539033    2.1267094980
C        2.0583274882   -3.0169091639    1.3049901281
C        3.2538435753   -2.9707217809    3.4079744890
C        1.2137728298   -1.9989771614    1.7625588275
C        2.4052721409   -1.9575007543    3.8674916433
C        0.1762330374   -4.3086687688    4.4128454313
C        0.0872564695   -5.3169193423    3.4525700039
C       -1.8240844104   -3.3015242081    3.5204711800
C        1.3783338008   -1.4600618123    3.0493728685
C       -0.7699605653   -3.2786449207    4.4435252400
C       -0.9458436023   -5.3226514019    2.5090290834
C       -1.9179136296   -4.3055058140    2.5475061801
C        0.4625115355   -0.3997601923    3.5265953024
C       -0.3440239897   -0.4472087316    4.5943177991
O       -1.8526231709   -1.7264275845    6.3891672512
O        0.5578254977   -2.1187347668    6.5177647853
S       -0.6025025179   -1.9061644387    5.6349939723
Cl      -1.0024000827   -6.5875169586    1.3009759683
Cl      -3.2314734905   -4.2645387515    1.3916195475
H        3.7367534021   -4.2884517686    1.7706672729
H        1.9185051102   -3.4302849205    0.3124398364
H        4.0461536936   -3.3413133957    4.0488333140
H        0.4208407066   -1.6361918483    1.1179865460
H        2.5486730140   -1.5533913896    4.8649715859
H        0.9965859857   -4.3134965870    5.1261432547
H        0.8356199550   -6.0998860080    3.4288805237
H       -2.5771732087   -2.5195803097    3.5425908868
H        0.3554225678    0.4622008453    2.8759330635
H       -0.9510473309    0.4044495821    4.8608017854
29   

C        3.1690200146   -3.4157497398    2.0462211637
C        2.2471257684   -2.8246503362    1.1776701464
C        3.2051394815   -3.0292481924    3.3887529204
C        1.3589735640   -1.8526162543    1.6520216687
C        2.3132251360   -2.0619705500    3.8646337677
C        0.1131276435   -4.3359559727    4.4586379211
C        0.0098325483   -5.3603263623    3.5169749064
C       -1.8623448119   -3.3077982415    3.5356715311
C        1.3698433411   -1.4732091673    3.0057975980
C       -0.8131698295   -3.2874457225    4.4641562277
C       -1.0200215889   -5.3657179937    2.5696956585
C       -1.9721536034   -4.3293345387    2.5832285211
C        0.4228466449   -0.4465999240    3.4780043970
C       -0.3341251942   -0.4599271462    4.5854622072
O       -1.8964325613   -1.6880153134    6.3684737970
O        0.4995930600   -2.1273550345    6.5482036933
S       -0.6373298859   -1.9021393574    5.6388079274
Cl      -1.0996508163   -6.6562916179    1.3904193715
Cl      -3.2826621500   -4.2881978465    1.4238617828
H        3.8594352520   -4.1663042170    1.6776720148
H        2.2203837601   -3.1191364808    0.1345256698
H        3.9284310970   -3.4732478983    4.0636399512
H        0.6485946355   -1.4047108699    0.9660256446
H        2.3708594800   -1.7593155203    4.9048751038
H        0.9269423463   -4.3456978353    5.1793279307
H        0.7418571563   -6.1590041907    3.5128308331
H       -2.6013430375   -2.5122073440    3.5399172815
H        0.2613566585    0.3874897225    2.8026667699
H       -0.9100959495    0.4110597192    4.8585996667
29   

C        3.2151264665   -3.2063042506    1.8147184698
C        2.4537576341   -2.3918672395    0.9729752386
C        3.0627696613   -3.1067670279    3.1996692555
C        1.5313385569   -1.4898784386    1.5150425883
C        2.1397514668   -2.2064017589    3.7427342905
C       -0.0128628881   -4.4295090173    4.7468463252
C       -0.0996588783   -5.5369851782    3.9021472585
C       -1.7679837144   -3.3538940060    3.4913886591
C        1.3408195966   -1.4058988107    2.9079785998
C       -0.8395438968   -3.3194544720    4.5404810039
C       -1.0113830965   -5.5630339789    2.8406642214
C       -1.8583131608   -4.4581930126    2.6343710911
C        0.3671113208   -0.4334560458    3.4188229611
C       -0.4028945394   -0.4581983779    4.5205270722
O       -1.9938814388   -1.6287564444    6.3118476237
O        0.3921837549   -2.0199566827    6.5865277977
S       -0.7133531429   -1.8593348973    5.6264608780
Cl      -1.0803844693   -6.9666310799    1.7975690362
Cl      -3.0190317005   -4.4383524558    1.3244761335
H        3.9301869391   -3.9051265868    1.3949864691
H        2.5784004791   -2.4589172160   -0.1019915803
H        3.6685626317   -3.7198215087    3.8573983281
H        0.9504893217   -0.8668614788    0.8439700299
H        2.0779276544   -2.1217394620    4.8199995816
H        0.7024123352   -4.4298644214    5.5657116751
H        0.5480479197   -6.3896515131    4.0677577066
H       -2.4306890313   -2.5095713221    3.3284134842
H        0.2043781418    0.4250792223    2.7750516585
H       -0.9892441655    0.4123430192    4.7729645524
29   

C        3.4621279308   -3.0064634006    1.7369602152
C        2.7925587518   -2.0835972994    0.9314438117
C        3.1264043343   -3.1172149237    3.0875512552
C        1.7791146221   -1.2848498101    1.4726140760
C        2.1129390011   -2.3192488311    3.6298543937
C       -0.0948621542   -4.4990507923    4.8129345936
C       -0.2639753708   -5.6467811532    4.0367199175
C       -1.8965180843   -3.4403784090    3.6098799167
C        1.4007154955   -1.4117926201    2.8253416686
C       -0.9041584338   -3.3777545642    4.5975358408
C       -1.2427296936   -5.7030268576    3.0376594359
C       -2.0710867718   -4.5858993957    2.8231035449
C        0.3485800079   -0.5186111927    3.3172241204
C       -0.4185660792   -0.5318434065    4.4236353826
O       -1.9393248504   -1.5880923505    6.3383050561
O        0.4472516679   -2.0147421485    6.5273607981
S       -0.6951325611   -1.8740874549    5.6084767484
Cl      -1.4191223288   -7.1597720716    2.0837912357
Cl      -3.3156602914   -4.6032167042    1.5924112216
H        4.2484998414   -3.6251579485    1.3189735785
H        3.0600806013   -1.9848757553   -0.1146373942
H        3.6621893897   -3.8132702864    3.7230584404
H        1.2775667592   -0.5739991803    0.8253029099
H        1.9269081163   -2.4021812141    4.6894944627
H        0.6659886222   -4.4803651274    5.5894695470
H        0.3683992122   -6.5095400737    4.2096694691
H       -2.5485683351   -2.5881932466    3.4440625452
H        0.1413402972    0.3219800155    2.6627296900
H       -1.0365410997    0.3281371715    4.6337449959
29   

C        2.4745679114   -3.0687223473    0.1959965641
C        3.2869130676   -2.1549148227    0.8681535829
C        1.1476401661   -3.2353768198    0.5942513883
C        2.7752897848   -1.4186723338    1.9424313075
C        0.6346347253   -2.4991281807    1.6679888390
C       -0.3629598852   -3.5505696838    5.8166239470
C        0.0840275551   -4.8344559274    6.1365966659
C       -1.3060497238   -4.4105371039    3.7710502110
C        1.4434006004   -1.5927882359    2.3768946470
C       -1.0499680698   -3.3228126225    4.6195823299
C       -0.1505487669   -5.9150134004    5.2778355879
C       -0.8577717645   -5.7002949647    4.0808814953
C        1.0039482807   -0.7582949509    3.4965637351
C       -0.1472019334   -0.6230432418    4.1848405518
O       -2.3127727538   -1.6417179602    2.8826681168
O       -2.5231432829   -1.1546014425    5.2594265345
S       -1.6401782024   -1.6492259631    4.1923023496
Cl       0.4323372474   -7.5067568399    5.7137176205
Cl      -1.1890418011   -7.0154579937    2.9742346307
H        2.8683663445   -3.6395404582   -0.6376586701
H        4.3153521264   -2.0141941102    0.5550424484
H        0.5068629705   -3.9304197852    0.0631291143
H        3.4318041909   -0.7137132066    2.4401406497
H       -0.4045907783   -2.6437156348    1.9028412412
H       -0.1777407945   -2.7290387975    6.5032405377
H        0.6187474101   -5.0022170964    7.0641022416
H       -1.8674201847   -4.2608226132    2.8527544083
H        1.7612140385   -0.0578224377    3.8333926861
H       -0.2240541036    0.1910822767    4.8897421085
