12   
Generated by ForceBalance from scan.xyz: Frame 1 of 24
C        2.9500409321   -1.9529048263    1.8129360440
C        3.4451489348   -1.0912122668   -0.8671162745
N        4.4391838676   -0.7166205053    3.3016973952
N        3.8815676044   -0.9881973802    2.0347699846
S        2.4135138647   -3.0100466670    2.9773640181
S        2.2974687300   -2.0806323211    0.1667203836
H        3.1560127393   -1.3018584585   -1.8994951346
H        4.4806179452   -1.4079516206   -0.7222426987
H        3.3439096963   -0.0141205432   -0.7029247960
H        5.0316352177   -1.5121096777    3.5480356706
H        3.6724249211   -0.7330519644    3.9795016616
H        4.0473999126   -0.2572226525    1.3563583606
12   
Generated by ForceBalance from scan.xyz: Frame 2 of 24
C        2.9208240063   -1.9317881822    1.7865649739
C        3.4848044167   -1.1419878266   -0.8888280734
N        4.4172748656   -0.7326519172    3.2992063209
N        3.8025351994   -0.9279451653    2.0441739944
S        2.5299658941   -3.1245229506    2.8714518187
S        2.1978140698   -1.9308429186    0.1571955628
H        3.1988487972   -1.3710180294   -1.9181036702
H        4.4642885431   -1.5790715606   -0.6854581079
H        3.5229430074   -0.0542926606   -0.7809004028
H        5.1072448424   -1.4769412675    3.4178346966
H        3.7066143009   -0.9065722090    4.0151571686
H        3.8277586857   -0.1080144821    1.4517158338
12   
Generated by ForceBalance from scan.xyz: Frame 3 of 24
C        2.9067859883   -1.8861173230    1.7768020075
C        3.5114632268   -1.1936071591   -0.8957360981
N        4.3879306039   -0.7014940601    3.3211525294
N        3.7138756307   -0.8371374661    2.0893987044
S        2.6616682015   -3.1955939776    2.7600168529
S        2.1228670435   -1.7606939760    0.1668026865
H        3.1749125763   -1.3565115838   -1.9223056108
H        4.3986650017   -1.8015461864   -0.7101213862
H        3.7468005950   -0.1338297841   -0.7727951574
H        5.1444633372   -1.3883719552    3.3316303451
H        3.7400053220   -1.0013528951    4.0548204241
H        3.6286378263    0.0306757874    1.5747765907
12   
Generated by ForceBalance from scan.xyz: Frame 4 of 24
C        2.9460671992   -1.8394087002    1.7671605825
C        3.5349954740   -1.2672737199   -0.9073108978
N        4.3577317849   -0.6413635136    3.3670817063
N        3.6488927110   -0.7431598166    2.1525670126
S        2.8614184587   -3.2440080268    2.6345659516
S        2.0976909344   -1.6065734291    0.1863989152
H        3.1340291445   -1.2485375785   -1.9234569147
H        4.2645264852   -2.0753743867   -0.8262966137
H        4.0104506789   -0.3073776093   -0.6970584138
H        5.1784537782   -1.2460022068    3.2932432476
H        3.7735550380   -1.0661368443    4.0926934368
H        3.4629767703    0.1461593753    1.7040481394
12   
Generated by ForceBalance from scan.xyz: Frame 5 of 24
C        2.9654435389   -1.8025472200    1.7343852906
C        3.5153262983   -1.3426692078   -0.9376285647
N        4.2848514858   -0.6356439092    3.4335701293
N        3.5626805012   -0.6888712466    2.2248820184
S        3.0253564773   -3.2893520609    2.4520161059
S        2.0701680947   -1.4563479847    0.1895475818
H        3.1078760370   -1.1796437179   -1.9380618348
H        4.0728969623   -2.2813788758   -0.9254957955
H        4.1711075355   -0.5096232960   -0.6770638154
H        5.1332886747   -1.1918120478    3.3066952286
H        3.7350596126   -1.1408577056    4.1340608592
H        3.3311427191    0.2138175441    1.8259567457
12   
Generated by ForceBalance from scan.xyz: Frame 6 of 24
C        3.0672753180   -1.7126364440    1.7141271938
C        3.4973720053   -1.3841352477   -0.9858426484
N        4.2577360489   -0.5983531236    3.5390465462
N        3.5424404440   -0.6028693953    2.3258461589
S        3.2751580944   -3.2528486060    2.2749685844
S        2.1182111537   -1.2802717464    0.2195484146
H        3.0642899819   -1.1789653659   -1.9675180280
H        3.9214803563   -2.3901849961   -0.9805349767
H        4.2702691986   -0.6438471476   -0.7696036962
H        5.1030098918   -1.1552194530    3.3932687180
H        3.7039096720   -1.1284383765    4.2175491092
H        3.2962828191    0.3113531521    1.9633362650
12   
Generated by ForceBalance from scan.xyz: Frame 7 of 24
C        3.1724834845   -1.6217141673    1.6750950877
C        3.4555905971   -1.4453247938   -1.0668087721
N        4.1657546350   -0.6184191238    3.6737350787
N        3.5213578471   -0.5502347150    2.4236390475
S        3.4846980309   -3.1925458335    2.0889902644
S        2.2022238287   -1.1066254148    0.2261119715
H        2.9732729031   -1.2396001176   -2.0250609413
H        3.7547378901   -2.4943296015   -1.0270569535
H        4.3239801773   -0.7946156758   -0.9484981725
H        5.0461925700   -1.1193424324    3.5325793471
H        3.6034468791   -1.2313283297    4.2702311191
H        3.2778967018    0.3823210161    2.1090926826
12   
Generated by ForceBalance from scan.xyz: Frame 8 of 24
C        3.2872727340   -1.5290638737    1.6363038206
C        3.4185499217   -1.5067582165   -1.1368962919
N        4.0679747430   -0.6500517956    3.7837916760
N        3.5049827877   -0.5103997098    2.5011097506
S        3.7064855257   -3.1049249968    1.9281867252
S        2.3217796136   -0.9542364726    0.2185047823
H        2.8900727794   -1.2872588778   -2.0672726392
H        3.5928093313   -2.5809323545   -1.0569662545
H        4.3639032799   -0.9622000149   -1.1137891061
H        4.9873630422   -1.0822343186    3.6657924388
H        3.5084121510   -1.3439907903    4.2859896609
H        3.2590252763    0.4369768297    2.2369317120
12   
Generated by ForceBalance from scan.xyz: Frame 9 of 24
C        3.3897894057   -1.4341817444    1.6126074915
C        3.3857187275   -1.5635747021   -1.1723857485
N        3.9916482158   -0.6665340980    3.8596316726
N        3.4843569764   -0.4708025802    2.5612984961
S        3.9348788110   -2.9877600496    1.8100433191
S        2.4450431405   -0.8247078921    0.2066124182
H        2.8414133562   -1.3019991507   -2.0826057968
H        3.4224762933   -2.6475599140   -1.0584646297
H        4.3946386791   -1.1504055457   -1.2123145238
H        4.9365558376   -1.0452036446    3.7621473789
H        3.4443916402   -1.4152413354    4.2910126037
H        3.2073585613    0.4808879530    2.3486872374
12   
Generated by ForceBalance from scan.xyz: Frame 10 of 24
C        3.4804569842   -1.3462120214    1.5919127443
C        3.3630542407   -1.6108365848   -1.1869611775
N        3.9392085796   -0.6896162643    3.9071286422
N        3.4627767361   -0.4445400073    2.6059708723
S        4.1546557877   -2.8584813941    1.7105672084
S        2.5733279805   -0.7081471221    0.1844633550
H        2.8646882804   -1.2620852029   -2.0945735421
H        3.2172632466   -2.6842476972   -1.0659354236
H        4.4279246162   -1.3795158447   -1.2334546740
H        4.9127531281   -0.9908277392    3.8230266262
H        3.4347917238   -1.5017287066    4.2699632179
H        3.1231063385    0.4975892448    2.4492719104
12   
Generated by ForceBalance from scan.xyz: Frame 11 of 24
C        3.5490820705   -1.2750413980    1.5701238655
C        3.3410541884   -1.6442855613   -1.1957814415
N        3.8908861997   -0.7273474946    3.9333682330
N        3.4312414594   -0.4405892088    2.6351359811
S        4.3106891614   -2.7498884051    1.6353425282
S        2.7214284670   -0.5821910314    0.1446369384
H        2.8795137350   -1.2581271283   -2.1079780453
H        3.0422006786   -2.6792032328   -1.0298346300
H        4.4271620827   -1.5774983862   -1.2663640329
H        4.8876809652   -0.9446188129    3.8640887241
H        3.4435817824   -1.5969906316    4.2314175789
H        3.0216855817    0.4804971611    2.5284977137
12   
Generated by ForceBalance from scan.xyz: Frame 12 of 24
C        3.6189084097   -1.2191869508    1.5546617633
C        3.3211738341   -1.6629952704   -1.1933750356
N        3.8490041527   -0.7525435748    3.9486062816
N        3.3965475517   -0.4495828577    2.6516522673
S        4.4504858395   -2.6573297650    1.5941196082
S        2.8955735055   -0.4644205627    0.1054132596
H        2.9056225874   -1.2478985338   -2.1150334247
H        2.8725971323   -2.6334187382   -0.9801372419
H        4.4030542762   -1.7655885299   -1.2792757294
H        4.8617873133   -0.8839249945    3.8973623896
H        3.4688562178   -1.6678247249    4.1992909046
H        2.8998926641    0.4309347502    2.5770390670
12   
Generated by ForceBalance from scan.xyz: Frame 13 of 24
C        2.5031503418   -1.0613539997    2.1473644407
C        0.2161386255   -1.0058765806    0.5360451830
N        4.4469032159   -0.8421192495    3.6223164895
N        3.6850642185   -0.4889972995    2.4936814973
S        1.7507051886   -2.2376563670    3.0471485206
S        1.9349702769   -0.4123404123    0.5811529396
H       -0.1973454971   -0.6244912976   -0.4008735542
H       -0.3470121993   -0.6131624965    1.3832226608
H        0.1897955065   -2.0954321477    0.5450504949
H        4.6502203220   -1.8417101545    3.5539516895
H        3.8435885870   -0.7432075696    4.4419716144
H        4.0687585124    0.2760630047    1.9505708171
12   
Generated by ForceBalance from scan.xyz: Frame 14 of 24
C        2.5331150476   -1.1520956100    2.1139427433
C        0.2227077971   -0.9694287685    0.5536222892
N        4.4131495181   -0.7880528120    3.6419279426
N        3.6446308887   -0.4785878164    2.5045309910
S        1.8557998361   -2.3981805695    2.9765540757
S        2.0019225236   -0.5809508627    0.5007000118
H       -0.1803204230   -0.6348010943   -0.4052045716
H       -0.2614636463   -0.4320967065    1.3699997711
H        0.0739691866   -2.0428704197    0.6707272172
H        4.7145012196   -1.7610754227    3.5523403032
H        3.7839347337   -0.7724742169    4.4478043832
H        3.9595800949    0.3351326731    1.9885814052
12   
Generated by ForceBalance from scan.xyz: Frame 15 of 24
C        2.5678393778   -1.2649210201    2.0644321970
C        0.2377987133   -0.9207489508    0.5726544152
N        4.3555485329   -0.7430030691    3.6557630318
N        3.5896079903   -0.4894947153    2.5023363935
S        2.0055242345   -2.6009078602    2.8698201173
S        2.0475324532   -0.7319503079    0.4255154115
H       -0.1710726316   -0.6811891629   -0.4115335709
H       -0.1599094787   -0.2297225938    1.3173243230
H       -0.0081488390   -1.9495069967    0.8382099279
H        4.7528849516   -1.6803789676    3.5578247254
H        3.7061476039   -0.8064779191    4.4431598072
H        3.8310699102    0.3609478534    2.0062618332
12   
Generated by ForceBalance from scan.xyz: Frame 16 of 24
C        2.6087200156   -1.3882389941    2.0078698857
C        0.2680436236   -0.8636022111    0.6098846842
N        4.2610874168   -0.6923949939    3.6750071937
N        3.5183378340   -0.5106502169    2.4930479666
S        2.1783811663   -2.7978781125    2.7641752792
S        2.0784194035   -0.8919977695    0.3509801960
H       -0.1775797201   -0.6556482075   -0.3654322633
H       -0.0079851592   -0.0780589046    1.3152217282
H       -0.0694434902   -1.8371519508    0.9689229706
H        4.7390709236   -1.5936356864    3.5965168194
H        3.5912001887   -0.8103829384    4.4387551390
H        3.7010109039    0.3534873732    1.9953495049
12   
Generated by ForceBalance from scan.xyz: Frame 17 of 24
C        2.6686166447   -1.5155823964    1.9490048130
C        0.3261188203   -0.8066830387    0.6685883420
N        4.1326003360   -0.6155422107    3.6909677541
N        3.4347965499   -0.5303698761    2.4709468892
S        2.3919536168   -2.9722817017    2.6823422155
S        2.0971897614   -1.0717404001    0.2808475903
H       -0.1688610263   -0.5935037402   -0.2815431670
H        0.1972270778    0.0402815565    1.3450189283
H       -0.0973336688   -1.7132289687    1.1048715264
H        4.7136465247   -1.4571018555    3.6483372550
H        3.4420677752   -0.8057828027    4.4210320487
H        3.5703818998    0.3289893303    1.9503789322
12   
Generated by ForceBalance from scan.xyz: Frame 18 of 24
C        2.7245771283   -1.6385472559    1.8979269503
C        0.3907911448   -0.7504270097    0.7371382639
N        3.9831417379   -0.5471222282    3.6906809402
N        3.3284487055   -0.5573634224    2.4437662682
S        2.6284104271   -3.1216002478    2.6199510565
S        2.0807887458   -1.2587516895    0.2357846921
H       -0.1474242089   -0.5194199657   -0.1849795037
H        0.4153274525    0.1364810402    1.3734935987
H       -0.1086797158   -1.5741474099    1.2509920231
H        4.6523606313   -1.3218517604    3.6862182900
H        3.2892102574   -0.7997212231    4.3981365708
H        3.4203561033    0.2919970163    1.8979195524
12   
Generated by ForceBalance from scan.xyz: Frame 19 of 24
C        2.7609860511   -1.7538504685    1.8323492144
C        0.4371862250   -0.6980932089    0.7648311600
N        3.8639689502   -0.5575963291    3.6610281101
N        3.2116384920   -0.6151114712    2.4135980197
S        2.8728636629   -3.2566973473    2.5086017433
S        2.0259140488   -1.4264441448    0.2010351625
H       -0.1450684875   -0.5036702558   -0.1388292949
H        0.5865215196    0.2391106859    1.3044732120
H       -0.0997526427   -1.4138570771    1.3906196821
H        4.5873421403   -1.2821559446    3.6569897858
H        3.1905319551   -0.8565942936    4.3697513790
H        3.2637310780    0.2353921962    1.8645857830
12   
Generated by ForceBalance from scan.xyz: Frame 20 of 24
C        2.7959146807   -1.7934902762    1.8580937813
C        0.4760988059   -0.6433680731    0.7986228633
N        3.7826591843   -0.5129274349    3.6950147411
N        3.0955918703   -0.6178702244    2.4683151596
S        3.1377806284   -3.2833037954    2.4874317370
S        1.9735406126   -1.5642860430    0.2631376713
H       -0.1612021206   -0.5771479058   -0.0863296236
H        0.7015267950    0.3658663578    1.1483285207
H       -0.0485122327   -1.2033080371    1.5751896663
H        4.5376777305   -1.2041742734    3.6768042312
H        3.1458624788   -0.8282250459    4.4296588086
H        3.0782615988    0.2385181612    1.9270896460
12   
Generated by ForceBalance from scan.xyz: Frame 21 of 24
C        2.8089816589   -1.8503239019    1.8385676422
C        0.5180707919   -0.5832185608    0.7734979891
N        3.7137296466   -0.5534137035    3.7041496485
N        2.9840353261   -0.6767002973    2.5031392661
S        3.3524325735   -3.3166419675    2.3826311532
S        1.8996687099   -1.6986172540    0.2983641693
H       -0.2111270283   -0.6658706688   -0.0358743270
H        0.8173143422    0.4636082866    0.8640866726
H        0.0606593002   -0.9270996198    1.7028546071
H        4.5412102463   -1.1498833009    3.6175802178
H        3.1524132350   -0.9759449536    4.4461872765
H        2.8592017310    0.1997396526    2.0117080435
12   
Generated by ForceBalance from scan.xyz: Frame 22 of 24
C        2.8076537263   -1.8923058523    1.8749866564
C        0.5645713741   -0.5485342841    0.7507642118
N        3.6716144389   -0.5632273280    3.7347006348
N        2.8870917402   -0.7278714274    2.5737516343
S        3.5391225572   -3.3066099464    2.3410413653
S        1.8187454867   -1.8414697758    0.3922587432
H       -0.2108490093   -0.6818533118   -0.0072570223
H        0.9548492119    0.4692730894    0.6618072880
H        0.1268151566   -0.7032207594    1.7388150471
H        4.5603018200   -1.0436700473    3.5698595704
H        3.2171244223   -1.0873766649    4.4849828987
H        2.6197778675    0.1466178807    2.1406849146
12   
Generated by ForceBalance from scan.xyz: Frame 23 of 24
C        3.1045688872   -2.0605898745    1.8099974288
C        3.4046256979   -1.0266300929   -0.8370951001
N        4.4985648826   -0.7350629164    3.3132509325
N        4.0262306789   -1.0854287274    2.0307299140
S        2.3272507957   -2.8940529260    3.0195036686
S        2.7102867405   -2.4296392373    0.1194287189
H        3.0181842874   -1.1510551528   -1.8514462757
H        4.4974500336   -1.0469648304   -0.8887206557
H        3.0549584852   -0.0693310719   -0.4437824798
H        4.6653674897   -1.6066877154    3.8235027903
H        3.7268623116   -0.2804714778    3.8053042874
H        4.6118358756   -0.7448777210    1.2801374836
12   
Generated by ForceBalance from scan.xyz: Frame 24 of 24
C        3.0088794243   -2.0029055228    1.8055066212
C        3.4260259332   -1.0411831112   -0.8598081020
N        4.4555975411   -0.7296498220    3.3064335241
N        3.9399845806   -1.0423422629    2.0325077635
S        2.3438342610   -2.9498242236    3.0009111087
S        2.4772290933   -2.2554453663    0.1337826556
H        3.0991422405   -1.1960403096   -1.8908334649
H        4.5033074145   -1.2241311785   -0.8139794105
H        3.1932233123   -0.0095710921   -0.5810601748
H        4.8416156153   -1.5928557271    3.6963716726
H        3.6598295454   -0.4995196296    3.9064392251
H        4.3261409763   -0.4819478522    1.2860590430
