44

C      1.42921   -5.19752    2.24714
C     -1.92202   -0.53857   -0.98702
C      0.98681   -3.87988    2.08150
C     -2.91418    0.44030   -1.06509
C      2.39168   -5.72644    1.38618
C     -1.28871    2.05797   -0.27352
C      2.47407   -3.58721    0.21018
C     -0.63365   -0.25033   -0.52220
C      1.50211   -3.05907    1.07055
C     -0.30077    1.08013   -0.17530
C     -2.59380    1.75244   -0.69485
C      2.89406   -4.90470    0.37423
C      0.30329   -1.41207   -0.41920
C      1.11127    1.50842    0.17519
C      1.75323    0.81768    1.38722
C      2.18938   -0.62950    1.14744
C      1.02884   -1.63069    0.92404
C     -4.79585    2.55453   -1.17340
C      3.05519   -6.09183   -2.17198
O      0.39983   -2.21647   -1.33709
O      4.94552   -4.46999   -1.26113
O      4.68561   -6.78431   -0.18895
O     -3.46558    2.80195   -0.72244
S      4.09561   -5.57406   -0.78544
H      1.02407   -5.80960    3.04827
H     -2.15106   -1.55841   -1.28225
H      0.23006   -3.48310    2.75501
H     -3.90555    0.17222   -1.41152
H      2.76335   -6.74046    1.49665
H     -1.06252    3.09468   -0.03944
H      2.90433   -2.98325   -0.58111
H      1.75491    1.34850   -0.70058
H      1.10403    2.58803    0.35154
H      2.64251    1.39200    1.67171
H      1.06723    0.86240    2.24263
H      2.88114   -0.67391    0.29780
H      2.75151   -0.97899    2.01969
H      0.28336   -1.43227    1.70384
H     -5.31130    3.51401   -1.11935
H     -5.30674    1.82992   -0.52799
H     -4.80422    2.19414   -2.20898
H      3.73262   -6.49074   -2.93009
H      2.36626   -6.86311   -1.82515
H      2.51733   -5.22203   -2.55169
