19

C      1.89291   -1.08523   -0.20268
C      0.81055   -0.48077    0.43371
C      2.90536   -1.66943    0.57134
C      0.73570   -0.45756    1.83302
C      2.85990   -1.66279    1.96656
C      1.75448   -1.04504    2.59192
C      3.94486   -2.28870    2.80654
C      0.68816   -0.46343    4.65856
O      1.77024   -1.07314    3.96492
H      1.95410   -1.10493   -1.28726
H      0.01588   -0.02265   -0.14963
H      3.75247   -2.14257    0.07924
H     -0.11361    0.01665    2.31200
H      4.40684   -1.55005    3.47042
H      3.54157   -3.07852    3.44945
H      4.72443   -2.72136    2.17383
H      0.90136   -0.59502    5.72052
H     -0.26643   -0.94782    4.41764
H      0.61977    0.60805    4.43244
