26

C      1.10474    7.11452    0.52698
C      0.52379    6.63446    1.70249
C      1.60211    6.20321   -0.41211
C      0.43689    5.25842    1.93645
C      1.52424    4.82947   -0.18282
C      0.93800    4.34596    0.99716
C      0.45863    2.05826    0.28920
C      0.48148    0.56527    0.60705
C      0.52338    0.18352    2.08711
C      1.53231    1.07762    2.80283
C      1.10318    2.53331    2.67189
N      0.89241    2.94068    1.26856
O      0.11940    2.43052   -0.83161
H      1.17017    8.18360    0.34326
H      0.12917    7.32779    2.44082
H      2.05856    6.56336   -1.33051
H     -0.03099    4.90326    2.84911
H      1.90471    4.13083   -0.91740
H     -0.37776    0.13104    0.09061
H      1.37249    0.17664    0.09749
H     -0.46689    0.31907    2.54037
H      0.78071   -0.87539    2.19645
H      1.60224    0.83071    3.86770
H      2.53043    0.94371    2.36782
H      0.18004    2.68464    3.24889
H      1.86173    3.19751    3.09423
