16   
Generated by ForceBalance from scan.xyz: Frame 1 of 24
C       -0.1838057574    1.2888617390   -2.6926887424
C        0.3774669442    0.2270098791   -1.8382933856
C       -0.3403214600   -0.2870534924   -0.6128471652
C        0.0773626293    0.4746801776    0.6541168274
C       -0.3309688968   -0.2286850682    1.9370804655
O       -0.2013679619   -0.0874635864   -3.1182153989
F        0.3265765055   -1.4694823589    2.0358045839
H       -1.1618590421    1.7057438183   -2.4497102647
H        0.4780591844    1.9407936846   -3.2623915723
H        1.4645977694    0.1232978441   -1.8190845939
H       -1.4220329729   -0.2114007081   -0.7704672866
H       -0.1062283721   -1.3503829839   -0.4906170680
H        1.1662373626    0.6077450205    0.6727445616
H       -0.3616088801    1.4805337496    0.6575229281
H       -1.4069484491   -0.4341507387    1.9656623471
H       -0.0504619007    0.3532757235    2.8207891271
16   
Generated by ForceBalance from scan.xyz: Frame 2 of 24
C       -0.0706935386    1.2680321099   -2.7448143703
C        0.3630806484    0.1942224849   -1.8331321212
C       -0.4504875387   -0.2274873978   -0.6320015363
C       -0.0333788500    0.5351557000    0.6397270337
C       -0.2335824162   -0.2659699166    1.9148799240
O       -0.1736984185   -0.1163440350   -3.1314638796
F        0.5922528717   -1.4061607163    1.8947480253
H       -1.0243297446    1.7655806769   -2.5649986869
H        0.6671788050    1.8486660750   -3.2979960826
H        1.4361407418    0.0078603052   -1.7514935777
H       -1.5149339800   -0.0838153661   -0.8447232236
H       -0.2955203138   -1.3014168655   -0.4792752279
H        1.0284900759    0.8058806793    0.5851238150
H       -0.5882350529    1.4771042275    0.7262669787
H       -1.2648455436   -0.6207731942    2.0209856117
H        0.0424372225    0.3138139680    2.8013945942
16   
Generated by ForceBalance from scan.xyz: Frame 3 of 24
C        0.0196869613    1.2359060124   -2.7345595974
C        0.3279769300    0.1530745228   -1.7834830153
C       -0.5725669581   -0.1800480450   -0.6169040954
C       -0.1578278922    0.5745594471    0.6668508845
C       -0.1403561240   -0.3038863323    1.9054220863
O       -0.1679457141   -0.1454095527   -3.1005552701
F        0.8198612552   -1.3223795985    1.7499421948
H       -0.9014342813    1.8064490060   -2.6109405851
H        0.8247638526    1.7479436149   -3.2611442016
H        1.3786890956   -0.1100799340   -1.6441100016
H       -1.6094778011    0.0403892123   -0.8886352572
H       -0.5106845287   -1.2604380919   -0.4455681506
H        0.8470136816    0.9981045527    0.5489386864
H       -0.8266584173    1.4226681547    0.8540017920
H       -1.1041320492   -0.7973848484    2.0731192037
H        0.1361437110    0.2638558121    2.7996208141
16   
Generated by ForceBalance from scan.xyz: Frame 4 of 24
C        0.1258481862    1.1998539507   -2.7204508019
C        0.3027690756    0.1128253255   -1.7415126803
C       -0.6837723722   -0.1290085794   -0.6226493595
C       -0.2801375195    0.6132074130    0.6753868535
C       -0.0497903856   -0.3125049111    1.8557606770
O       -0.1446518506   -0.1695725894   -3.0795744551
F        1.0077976677   -1.1976647296    1.5661620231
H       -0.7553030794    1.8389212647   -2.6533296737
H        0.9934850703    1.6424875237   -3.2092475063
H        1.3215755829   -0.2249614984   -1.5411952088
H       -1.6773219862    0.1812435247   -0.9602774090
H       -0.7346293617   -1.2079418020   -0.4396683985
H        0.6340227967    1.1964583647    0.5143643780
H       -1.0540344499    1.3337524060    0.9648397138
H       -0.9306150538   -0.9280495719    2.0687628916
H        0.2328000174    0.2409760137    2.7570855192
16   
Generated by ForceBalance from scan.xyz: Frame 5 of 24
C        0.2304540646    1.1585872518   -2.6727888508
C        0.2769958432    0.0698977199   -1.6811323252
C       -0.7843338778   -0.0804042117   -0.6154545049
C       -0.3940031751    0.6368729652    0.6985159049
C        0.0456363462   -0.3109281859    1.7986852968
O       -0.1260541736   -0.1888279646   -3.0389256551
F        1.1783036301   -1.0401516976    1.3814752707
H       -0.6014266418    1.8636180029   -2.6518178574
H        1.1522281159    1.5301091359   -3.1199612491
H        1.2551990914   -0.3427347241   -1.4287459959
H       -1.7214995025    0.3232553483   -1.0116175001
H       -0.9537964355   -1.1473812092   -0.4317050414
H        0.4008436346    1.3690081622    0.5159307048
H       -1.2485547185    1.2023298005    1.0898759891
H       -0.7339958098   -1.0433641354    2.0340774242
H        0.3279292512    0.2255548381    2.7103711972
16   
Generated by ForceBalance from scan.xyz: Frame 6 of 24
C        0.3344063459    1.1104718278   -2.6002562157
C        0.2284879128    0.0073189571   -1.6297677068
C       -0.8931577467   -0.0428574102   -0.6161327564
C       -0.5230112571    0.6423756387    0.7150223537
C        0.1156074206   -0.2861227071    1.7314363882
O       -0.1449868196   -0.1856702543   -3.0083454688
F        1.3235272459   -0.8130606164    1.2269109083
H       -0.4198188264    1.8984038446   -2.5977616489
H        1.3073842252    1.3909719605   -3.0028782290
H        1.1467924945   -0.5076189429   -1.3477907151
H       -1.7645274824    0.4496304678   -1.0605712834
H       -1.1784346649   -1.0869952500   -0.4396484327
H        0.1359397292    1.4996007113    0.5352241384
H       -1.4299461852    1.0404892914    1.1879489499
H       -0.5323206289   -1.1402892848    1.9555204318
H        0.3608890618    0.2379666635    2.6607924082
16   
Generated by ForceBalance from scan.xyz: Frame 7 of 24
C        0.4379233315    1.0496120965   -2.5305313039
C        0.1795765589   -0.0575636095   -1.5941663028
C       -0.9730439682   -0.0043326896   -0.6152110359
C       -0.6071668681    0.6324962480    0.7366555116
C        0.2227210371   -0.2468895138    1.6549906268
O       -0.1782752968   -0.1696499181   -2.9876649300
F        1.4967195330   -0.4937244112    1.1016001013
H       -0.2191330212    1.9202719889   -2.5233477314
H        1.4477690730    1.2252545525   -2.9001430654
H        1.0258953888   -0.6804400494   -1.3099980156
H       -1.7805474164    0.5702198782   -1.0817719397
H       -1.3607427455   -1.0188696169   -0.4563711720
H       -0.0854430986    1.5841079180    0.5799573435
H       -1.5304306109    0.8664940629    1.2826534980
H       -0.2492309791   -1.2232917027    1.8106202543
H        0.3882851266    0.2339139826    2.6243653135
16   
Generated by ForceBalance from scan.xyz: Frame 8 of 24
C        0.5431767797    0.9849514244   -2.4597653421
C        0.1304719549   -0.1098363115   -1.5670467383
C       -1.0449234137    0.0384507205   -0.6255478154
C       -0.6867960208    0.6137847186    0.7548209674
C        0.3122324591   -0.1969704323    1.5627444234
O       -0.1896682342   -0.1449276735   -2.9740108828
F        1.5949017212   -0.1422897474    0.9798311977
H       -0.0125436116    1.9233771678   -2.4472431569
H        1.5789747583    1.0554999209   -2.7898399880
H        0.8941074448   -0.8299909942   -1.2792584571
H       -1.7870945530    0.6851886668   -1.1056018066
H       -1.5197725998   -0.9436683528   -0.4999161366
H       -0.2969852822    1.6334669239    0.6492060490
H       -1.6022720614    0.6878695357    1.3557286718
H        0.0310342413   -1.2549708415    1.6155231509
H        0.4126820067    0.1995374646    2.5779770756
16   
Generated by ForceBalance from scan.xyz: Frame 9 of 24
C        0.6233152705    0.8915040262   -2.4237036335
C        0.0903215443   -0.1574506261   -1.5420383412
C       -1.0998027199    0.0840569301   -0.6392411010
C       -0.7537186917    0.5807257138    0.7774349814
C        0.3848854978   -0.1441284522    1.4766056475
O       -0.1894946853   -0.1745135574   -2.9573828185
F        1.6201661182    0.1702960961    0.8764761932
H        0.1506327678    1.8742250331   -2.4297035905
H        1.6710690720    0.8699771852   -2.7207615082
H        0.7809148123   -0.9400702773   -1.2314250897
H       -1.7673856361    0.8024643602   -1.1256885188
H       -1.6588298007   -0.8582223755   -0.5646699756
H       -0.4927993992    1.6455402823    0.7477267041
H       -1.6432114961    0.4953915992    1.4136630491
H        0.2742082235   -1.2337182095    1.4297764517
H        0.4589265307    0.1622726827    2.5247044671
16   
Generated by ForceBalance from scan.xyz: Frame 10 of 24
C        0.6764559128    0.8176476496   -2.3959876283
C        0.0439066306   -0.1846329616   -1.5279697368
C       -1.1436764516    0.1410381750   -0.6478847311
C       -0.8084669208    0.5352786066    0.8095139028
C        0.4453386095   -0.0813462103    1.4089037740
O       -0.2124567443   -0.1772213403   -2.9474143198
F        1.5989595775    0.4381906612    0.7911488256
H        0.2869186793    1.8359076228   -2.4055288748
H        1.7239374580    0.7100887095   -2.6743574690
H        0.6620669604   -1.0240087881   -1.2103382065
H       -1.7245274904    0.9372638294   -1.1228632269
H       -1.7892571671   -0.7467621573   -0.6408056605
H       -0.6885648849    1.6226431693    0.8812751883
H       -1.6516050371    0.2753509071    1.4603724763
H        0.4790241175   -1.1700322285    1.2875918571
H        0.5233562964    0.1589436619    2.4738945479
16   
Generated by ForceBalance from scan.xyz: Frame 11 of 24
C        0.7291384042    0.7441924103   -2.3437153073
C       -0.0137068432   -0.2189063853   -1.5214345860
C       -1.1831805941    0.1902732264   -0.6512367075
C       -0.8554480751    0.4801432793    0.8390154411
C        0.4899396949   -0.0006229313    1.3591081284
O       -0.2408872390   -0.1411457249   -2.9435531322
F        1.5422145519    0.7103926900    0.7514055902
H        0.4400834003    1.7948403073   -2.3200653129
H        1.7665048210    0.5451120647   -2.6089436405
H        0.5121098458   -1.1271909529   -1.2249190596
H       -1.6564028097    1.0653932553   -1.1054359519
H       -1.9221406028   -0.6180796091   -0.7093959269
H       -0.8945978225    1.5595066063    1.0221312311
H       -1.6259885786    0.0358000941    1.4798185457
H        0.6664092334   -1.0636923058    1.1636401301
H        0.5693302522    0.1776922813    2.4362479754
16   
Generated by ForceBalance from scan.xyz: Frame 12 of 24
C       -1.2058767311    0.6343833461   -2.1110113990
C        0.1585817102    0.6203922185   -1.5683507997
C        0.6826914117   -0.5329952184   -0.7391742301
C        0.4697532487   -0.4157306060    0.7979815749
C       -0.2349035383    0.8300139181    1.3098466816
O       -0.0794519313    0.3341781172   -2.9618635665
F       -1.5886040228    0.8380236470    0.9170846541
H       -1.8642746586   -0.2074234296   -1.9004932894
H       -1.7010903045    1.5831118429   -2.3130636715
H        0.6446378492    1.5854969706   -1.4142750582
H        0.2001509183   -1.4416599468   -1.1105548186
H        1.7505324547   -0.6467420104   -0.9560793368
H       -0.0894093437   -1.2822974518    1.1647267157
H        1.4408878881   -0.4469056190    1.3070987025
H        0.2123116492    1.7556143054    0.9349814308
H       -0.2264938997    0.8504199252    2.4043301566
16   
Generated by ForceBalance from scan.xyz: Frame 13 of 24
C       -1.1643695901    0.7347959731   -2.0712351854
C        0.2143364392    0.6038308093   -1.5777170633
C        0.6553076609   -0.5735919263   -0.7350544072
C        0.5237647946   -0.3806736722    0.8003971462
C       -0.3354198151    0.7798871505    1.2719922695
O       -0.1038564579    0.3103831812   -2.9526009000
F       -1.6915215567    0.5650355523    0.9477678553
H       -1.8895563703   -0.0350271623   -1.8131860748
H       -1.5749359736    1.7214660585   -2.2827783638
H        0.7952947633    1.5221723593   -1.4666625122
H        0.0504457608   -1.4291828051   -1.0506135164
H        1.6913592846   -0.8217178039   -0.9890829421
H        0.1491399807   -1.2997766867    1.2613782701
H        1.5167144595   -0.2070034853    1.2355610207
H       -0.0459201544    1.7300980202    0.8144850391
H       -0.2856595026    0.8783894009    2.3610759271
16   
Generated by ForceBalance from scan.xyz: Frame 14 of 24
C       -1.1227977095    0.8104695065   -2.0589459915
C        0.2487526401    0.5768157996   -1.5789614230
C        0.6046369099   -0.6126052096   -0.7148300984
C        0.5761030670   -0.3376286846    0.8066147642
C       -0.4112891334    0.7193684632    1.2687171243
O       -0.1123966656    0.2824223364   -2.9421977934
F       -1.7355257570    0.3183599265    0.9936638580
H       -1.9050534246    0.1088647743   -1.7749063050
H       -1.4528657989    1.8231877106   -2.2892631368
H        0.9036382771    1.4475949420   -1.4922763142
H       -0.1057906052   -1.4092010551   -0.9573965536
H        1.5951397450   -0.9826590296   -1.0013855559
H        0.3867055121   -1.2703135031    1.3473925253
H        1.5632570319    0.0136397753    1.1373804624
H       -0.2590100060    1.6777245311    0.7643549113
H       -0.3452894372    0.8691811390    2.3510570931
16   
Generated by ForceBalance from scan.xyz: Frame 15 of 24
C       -1.0571901069    0.8999719272   -2.0710044166
C        0.2992898004    0.5611779948   -1.6067502112
C        0.5694749663   -0.6260029711   -0.7101957779
C        0.6407190024   -0.2723760751    0.7872108755
C       -0.4597385105    0.6540414568    1.2750793135
O       -0.1129182807    0.2620326545   -2.9536265191
F       -1.7257562129    0.0720815699    1.0563985428
H       -1.8912502341    0.2763045740   -1.7530803996
H       -1.3028596984    1.9305165645   -2.3272809006
H        1.0272428904    1.3750691121   -1.5527862542
H       -0.2238131843   -1.3610498746   -0.8781552877
H        1.5092647745   -1.1004082571   -1.0149851878
H        0.6320171523   -1.1930613130    1.3800446195
H        1.5917057197    0.2318584104    1.0090591145
H       -0.4560902584    1.6110526795    0.7454388021
H       -0.3754327085    0.8377519252    2.3508383737
16   
Generated by ForceBalance from scan.xyz: Frame 16 of 24
C       -0.9970710488    0.9815774977   -2.1047357408
C        0.3314049810    0.5335035459   -1.6482768259
C        0.5054522329   -0.6309417324   -0.7003577372
C        0.6585367413   -0.1971731124    0.7662977158
C       -0.5302556056    0.5804442287    1.3076191481
O       -0.1361476587    0.2204099465   -2.9732113704
F       -1.7066237708   -0.1868237226    1.1887192146
H       -1.8809303248    0.4523245290   -1.7496913490
H       -1.1503182421    2.0188500015   -2.4025855235
H        1.1345426766    1.2749779179   -1.6391053524
H       -0.3532082852   -1.3009804850   -0.8026086986
H        1.3928560582   -1.2004511375   -1.0007529936
H        0.8190219593   -1.0830595384    1.3904775240
H        1.5473939988    0.4371588877    0.8867346862
H       -0.7010745603    1.5083005875    0.7534202941
H       -0.4054603970    0.8131076655    2.3698086494
16   
Generated by ForceBalance from scan.xyz: Frame 17 of 24
C       -0.9152810019    1.0591661862   -2.1646234057
C        0.3671544752    0.4997962516   -1.6960908466
C        0.4415354302   -0.6253880568   -0.6896798925
C        0.6615601835   -0.1219362770    0.7463553948
C       -0.5795693880    0.4898876557    1.3761438865
O       -0.1478790895    0.1720270235   -2.9993182383
F       -1.6147571461   -0.4639581414    1.4263338802
H       -1.8463079935    0.6396338668   -1.7830735646
H       -0.9672545020    2.0905999097   -2.5131417274
H        1.2407162260    1.1554509732   -1.7316554728
H       -0.4706423137   -1.2265950690   -0.7434272310
H        1.2726452686   -1.2825259240   -0.9718893410
H        0.9933463995   -0.9530506293    1.3783616144
H        1.4613874060    0.6303570923    0.7736464392
H       -0.9584544737    1.3388292614    0.7980114892
H       -0.3891306880    0.8112615839    2.4049411179
16   
Generated by ForceBalance from scan.xyz: Frame 18 of 24
C       -0.8147860456    1.1351887647   -2.2239673306
C        0.4060498260    0.4620013507   -1.7401735133
C        0.3761940672   -0.6100473690   -0.6752850557
C        0.6454252275   -0.0411881267    0.7316924770
C       -0.6165928017    0.3940107159    1.4579445752
O       -0.1601755966    0.1299747085   -3.0202267148
F       -1.4568240535   -0.7166031165    1.6646116203
H       -1.7818791539    0.8382157330   -1.8174861883
H       -0.7601800275    2.1480748344   -2.6226817104
H        1.3443913668    1.0167106065   -1.8161924934
H       -0.5842939596   -1.1327846078   -0.6997045740
H        1.1429954749   -1.3530516182   -0.9229159465
H        1.1445367981   -0.7941691827    1.3510871545
H        1.3259552581    0.8188764039    0.6800593118
H       -1.1922308491    1.1252036181    0.8800593459
H       -0.3893303994    0.8123046288    2.4435886023
16   
Generated by ForceBalance from scan.xyz: Frame 19 of 24
C       -0.7447265722    1.1925634686   -2.2796262628
C        0.4108979499    0.4227582035   -1.7816103214
C        0.2884214679   -0.5940525021   -0.6704650047
C        0.5988124915    0.0226672492    0.7130017390
C       -0.6431630487    0.2611380913    1.5537733016
O       -0.2008964070    0.0976669392   -3.0416543563
F       -1.2735577656   -0.9656170061    1.8351966206
H       -1.7312240877    1.0074819766   -1.8536868905
H       -0.5978060180    2.1788745286   -2.7193324868
H        1.3972823751    0.8808649173   -1.8868632245
H       -0.7139100342   -1.0320688312   -0.6823822560
H        0.9834622992   -1.4143425865   -0.8796357238
H        1.2693113159   -0.6292615742    1.2824532309
H        1.1210262578    0.9820732042    0.6031516583
H       -1.3774868848    0.8837466724    1.0302148014
H       -0.3977037046    0.7237344645    2.5150833890
16   
Generated by ForceBalance from scan.xyz: Frame 20 of 24
C       -0.6575907210    1.2310951108   -2.3592006932
C        0.4240314087    0.3901343674   -1.8142951557
C        0.2000037754   -0.5587223066   -0.6599710967
C        0.5452814595    0.0960413021    0.7001907977
C       -0.6328533367    0.1504564460    1.6552976342
O       -0.2018566251    0.0610412813   -3.0662954516
F       -1.0636713610   -1.1533411498    1.9654307316
H       -1.6593924534    1.1490466244   -1.9364389918
H       -0.4244042403    2.1809345617   -2.8400016019
H        1.4463384165    0.7591219646   -1.9269520600
H       -0.8416857688   -0.8940542731   -0.6741039221
H        0.8082628913   -1.4550981903   -0.8170280733
H        1.3661011125   -0.4353052072    1.1923557666
H        0.8903172886    1.1282439145    0.5536945959
H       -1.4887215571    0.6719060807    1.2116995461
H       -0.3654371212    0.6335334032    2.6007350733
16   
Generated by ForceBalance from scan.xyz: Frame 21 of 24
C       -0.5558745406    1.2573128307   -2.4403997394
C        0.4440757127    0.3626153906   -1.8302929120
C        0.1138022814   -0.5127594317   -0.6440818376
C        0.4796428736    0.1699990955    0.6942904265
C       -0.6037534384    0.0439147747    1.7487572140
O       -0.1740923960    0.0262425965   -3.0848312465
F       -0.8328467719   -1.3115242468    2.0521002139
H       -1.5709863711    1.2703785813   -2.0421383827
H       -0.2385633476    2.1647598222   -2.9538331362
H        1.4940138616    0.6482150328   -1.9305103996
H       -0.9563348975   -0.7437633695   -0.6761264630
H        0.6339311432   -1.4706402775   -0.7407307725
H        1.4189151361   -0.2265792401    1.0932108625
H        0.6387084844    1.2458353203    0.5382660119
H       -1.5553434333    0.4571700758    1.3957500637
H       -0.3186213029    0.5381599542    2.6833055716
16   
Generated by ForceBalance from scan.xyz: Frame 22 of 24
C       -0.4607753058    1.2924334457   -2.5048507568
C        0.4444855179    0.3442161233   -1.8317402270
C        0.0128478725   -0.4461428156   -0.6188239283
C        0.4014472879    0.2615176700    0.6940245574
C       -0.5512085965   -0.0298895045    1.8381690396
O       -0.1739953397    0.0055317624   -3.0862415403
F       -0.5655069273   -1.4083456563    2.1241184201
H       -1.4788154431    1.4103865492   -2.1319477578
H       -0.0553711710    2.1455737005   -3.0485012664
H        1.5170495132    0.5337202280   -1.9184795923
H       -1.0740535968   -0.5784132897   -0.6695669860
H        0.4476615113   -1.4497821469   -0.6547539618
H        1.4228367293    0.0001980762    0.9913914715
H        0.3869346510    1.3506757670    0.5479331813
H       -1.5785177557    0.2539893228    1.5838132035
H       -0.2496640946    0.4850061989    2.7562948759
16   
Generated by ForceBalance from scan.xyz: Frame 23 of 24
C       -0.3754602839    1.2850087113   -2.5989177260
C        0.4245561935    0.2972219248   -1.8533652356
C       -0.1070827125   -0.3962773503   -0.6212710650
C        0.2989598691    0.3383734113    0.6658528409
C       -0.4961878201   -0.0997597813    1.8819571240
O       -0.1843986843   -0.0481687386   -3.1109899050
F       -0.2838782823   -1.4677056101    2.1385604965
H       -1.3901382527    1.5072530711   -2.2665473304
H        0.1180061588    2.0733816120   -3.1669464886
H        1.5115037329    0.3903551400   -1.9127625016
H       -1.1999361848   -0.4434604756   -0.6981424012
H        0.2516286642   -1.4301557182   -0.5937160249
H        1.3689282776    0.2078111576    0.8646476267
H        0.1293089879    1.4175010217    0.5460488085
H       -1.5725563122    0.0323676298    1.7253696226
H       -0.1911478078    0.4457938869    2.7809153438
16   
Generated by ForceBalance from scan.xyz: Frame 24 of 24
C       -0.2838095263    1.2915680243   -2.6561524679
C        0.3994027438    0.2593428266   -1.8565556966
C       -0.2261262911   -0.3436999112   -0.6211788718
C        0.1883009890    0.4072047813    0.6513662553
C       -0.4235467778   -0.1735536674    1.9138462931
O       -0.2030930843   -0.0693494343   -3.1219561882
F        0.0293948245   -1.4918183909    2.1113420447
H       -1.2826209060    1.6171431469   -2.3630736867
H        0.2968928720    2.0122459837   -3.2315741824
H        1.4914084216    0.2487137086   -1.8837282688
H       -1.3165696002   -0.3257379504   -0.7340900827
H        0.0698857129   -1.3951708477   -0.5415461314
H        1.2799736134    0.4061034899    0.7568512608
H       -0.1218530269    1.4587076643    0.5847837817
H       -1.5165806253   -0.2176008051    1.8503318925
H       -0.1356005796    0.4001903391    2.8006622662
