50

C     -5.35935   -1.84357    6.15403
C     -5.91793   -2.51786    7.23280
C     -3.71285   -2.24331    4.12711
C     -4.75060   -4.58361    6.67343
C     -4.47878   -2.54531    5.30933
C     -5.62744   -3.87824    7.50116
C     -4.19789   -3.89484    5.59755
C     -3.04615   -3.39167    3.79174
C     -2.08539   -3.72229    2.70551
C     -5.81682   -4.03157   10.05567
C     -6.57252   -4.06672   12.52411
C     -5.35444   -4.92602   12.42886
C     -0.70836   -4.25472   -1.60739
C     -3.08652   -3.66170   -1.09319
C     -0.57693   -2.87870   -2.33138
C     -2.85489   -2.30321   -1.82383
C     -1.09451   -1.69605   -0.31171
C     -6.29393   -4.82281   11.22676
C     -1.74844   -4.11093   -0.48192
C     -1.23310   -3.02688    0.49084
C     -6.25714   -4.56135    8.68729
N     -1.45304   -1.86044   -1.72450
N     -2.09428   -2.84141    1.65576
O     -1.33223   -4.69265    2.76892
O     -5.13642   -3.02477   10.18922
O     -3.32517   -4.40965    4.67646
H     -5.59664   -0.79896    5.97184
H     -6.58783   -1.98758    7.90352
H     -3.64128   -1.28815    3.62260
H     -4.50198   -5.62512    6.85641
H     -7.41257   -4.41186   13.11890
H     -6.43082   -2.99179   12.47753
H     -4.39701   -4.42753   12.31707
H     -5.33815   -5.87538   12.95502
H     -1.02772   -5.03701   -2.30450
H      0.25268   -4.57404   -1.18900
H     -3.84996   -3.57097   -0.31280
H     -3.44454   -4.42694   -1.79017
H      0.45130   -2.50526   -2.28753
H     -0.84377   -2.96026   -3.38975
H     -3.10740   -2.37681   -2.88629
H     -3.48534   -1.51230   -1.40202
H     -1.74103   -0.91998    0.11551
H     -0.06914   -1.31857   -0.25583
H     -6.91626   -5.68626   11.01020
H     -1.86139   -5.05154    0.06187
H     -0.26364   -3.34900    0.87850
H     -7.35220   -4.46332    8.65955
H     -6.06152   -5.63955    8.66624
H     -2.86822   -2.19442    1.58093
