53

C     -1.14533    1.72205    1.45937
C     -1.01360    0.51334    0.73292
C     -4.96413    2.33217    6.83715
C     -2.12507    1.86369    2.43210
C     -4.53986    1.34698    5.94806
C     -5.14363   -1.60398   -0.36459
C     -6.46227   -3.11675    0.98050
C     -1.84828   -0.57330    0.96812
C     -5.39335    3.58471    6.38231
C     -6.20750   -1.44883   -1.25493
C     -7.53770   -2.97826    0.09693
C     -4.97451    2.85865    4.10384
C     -2.99459    0.78228    2.67865
C     -4.55073    1.60506    4.56210
C     -4.08703    0.59324    3.58927
C     -5.25709   -2.43910    0.75795
C     -2.83716   -0.43411    1.95768
C     -5.39560    3.84933    5.00440
C     -7.38720   -2.14550   -1.00548
C     -4.55240   -0.70605    3.39590
C     -5.66266   -1.42016    4.06804
C     -7.69848    8.20228    4.96674
C     -7.99073    7.28526    3.79869
C     -6.63195    7.25411    4.45889
C     -4.09967   -2.59166    1.72637
C     -6.24843    6.07616    5.30804
N     -3.77433   -1.33745    2.41935
O     -5.78923   -2.63224    4.06613
O     -6.58514   -0.65832    4.70631
O     -5.79483    5.02609    4.44034
F     -8.42653   -2.00233   -1.86984
H     -0.46750    2.54456    1.24852
H     -0.23821    0.43057   -0.02397
H     -4.95748    2.13059    7.90502
H     -2.22719    2.78798    2.99382
H     -4.19506    0.38506    6.31471
H     -4.22056   -1.05968   -0.54460
H     -6.56997   -3.73981    1.86290
H     -1.72352   -1.49334    0.40539
H     -5.71644    4.33048    7.09899
H     -6.13405   -0.80647   -2.12718
H     -8.47837   -3.49535    0.25949
H     -4.99978    3.07827    3.04071
H     -7.56834    9.26242    4.77241
H     -8.16935    7.97731    5.92011
H     -8.64970    6.43834    3.96813
H     -8.06459    7.72136    2.80732
H     -5.80854    7.69619    3.90371
H     -4.32536   -3.34942    2.47254
H     -3.19391   -2.89863    1.19955
H     -7.11180    5.72651    5.89041
H     -5.44566    6.34406    6.00820
H     -6.35035    0.28794    4.66099
