19   

C        1.7384419689   -1.2550413623   -0.1122797198
C        0.7594317574   -0.5075775260    0.5303299262
C        2.7566132554   -1.8501374144    0.6347322502
C        0.8073010439   -0.3576060745    1.9153937674
C        2.8280617124   -1.7222434619    2.0404848157
C        1.8262642399   -0.9506732063    2.6864757229
C        3.9374114945   -2.3782579180    2.7466363214
C        1.8205881756   -0.7129792321    4.1780480110
N        4.0768571263   -2.6267519296    4.0910981830
N        5.0301618460   -2.8515689983    2.1031537344
N        5.2770297922   -3.2535563111    4.2090870279
N        5.8283601112   -3.3841371560    3.0607115039
H        1.7153431422   -1.3773121341   -1.1884326449
H       -0.0339060368   -0.0418626844   -0.0418557025
H        3.5107555936   -2.4302256310    0.1154791345
H        0.0396936193    0.2333956097    2.3998319012
H        1.6340955476   -1.6524087186    4.7071424543
H        2.7825630369   -0.3020117741    4.4992559226
H        1.0397016573   -0.0015161427    4.4605778552
19   

C        1.7129374745   -1.2940504841   -0.1207866946
C        0.7450747407   -0.5273953399    0.5192876273
C        2.7303750103   -1.8896769367    0.6275689528
C        0.8041278872   -0.3562383499    1.9025891985
C        2.8048605819   -1.7452875433    2.0284876693
C        1.8220583411   -0.9504426122    2.6730367226
C        3.9194818294   -2.3869559898    2.7407815494
C        1.8515888564   -0.6869225983    4.1595308099
N        3.9559085978   -2.8265542881    4.0413762631
N        5.1183903895   -2.6198858990    2.1598426355
N        5.2106010892   -3.3260489664    4.1994006406
N        5.8819064953   -3.2075950082    3.1139400544
H        1.6822553651   -1.4285952525   -1.1952684235
H       -0.0467380147   -0.0606989875   -0.0541979087
H        3.4837829141   -2.4827233664    0.1216210043
H        0.0492485603    0.2523801634    2.3852103068
H        1.5998733775   -1.6006483825    4.7063002212
H        2.8469646183   -0.3497437699    4.4649110131
H        1.1321412782    0.0891075412    4.4351947203
19   

C        1.7018344028   -1.3117164328   -0.1259327500
C        0.7477904435   -0.5265566333    0.5158737884
C        2.7149296470   -1.9180840279    0.6206142956
C        0.8167249717   -0.3454997799    1.8986290314
C        2.7904109276   -1.7678567995    2.0176848014
C        1.8298562457   -0.9513841609    2.6651502867
C        3.9059646115   -2.4037067755    2.7384499902
C        1.8880639601   -0.6855885208    4.1499699697
N        3.8595510126   -3.0319565331    3.9574609406
N        5.1751592333   -2.4030973753    2.2762030273
N        5.1448365878   -3.4126226525    4.1879985472
N        5.9038012640   -3.0508677992    3.2191042143
H        1.6642329590   -1.4500068017   -1.1997019939
H       -0.0398452896   -0.0514253043   -0.0564300324
H        3.4660188746   -2.5214532450    0.1234472154
H        0.0758343960    0.2788182733    2.3828577217
H        1.6063228911   -1.5875489298    4.7015675345
H        2.9012673427   -0.3930999548    4.4430190586
H        1.2053195352    0.1210849311    4.4309542333
19   

C        2.0351236214   -0.7401682141   -0.1290701731
C        0.8618364972   -0.3414555224    0.5086925744
C        3.0419896275   -1.3722510501    0.6053525433
C        0.7042672392   -0.5687559405    1.8782660030
C        2.8906584990   -1.6312339081    1.9777833104
C        1.7084956498   -1.2058518280    2.6301188222
C        4.0016554027   -2.2597225452    2.7199436545
C        1.5218274132   -1.3995209923    4.1151247167
N        3.9284516497   -3.3778794565    3.5095858387
N        5.2484913278   -1.7466455279    2.7605333720
N        5.1890850145   -3.5175139707    4.0017987344
N        5.9503453316   -2.5783840362    3.5703877225
H        2.1711255842   -0.5573962011   -1.1881220645
H        0.0778405207    0.1508059955   -0.0540453707
H        3.9642011779   -1.6737417737    0.1220344223
H       -0.2069292261   -0.2420388605    2.3641817924
H        1.4039637038   -2.4637368635    4.3403836490
H        2.3936059674   -1.0199539897    4.6574388990
H        0.6355658291   -0.8675134796    4.4718894781
19   

C        2.0221876212   -0.7555440215   -0.1439809477
C        0.8571550146   -0.3442240855    0.5031948987
C        3.0361781188   -1.3821493988    0.5861167994
C        0.7126172980   -0.5554260886    1.8775284795
C        2.8974648847   -1.6165616502    1.9627401206
C        1.7241320840   -1.1859711032    2.6243539574
C        4.0014419009   -2.2501989891    2.7188404210
C        1.5569966446   -1.3824691617    4.1109952262
N        3.9850476412   -3.5049568751    3.2674381591
N        5.1577401764   -1.6256035124    3.0155042546
N        5.1913642024   -3.6052152689    3.8890184593
N        5.8677261074   -2.5234304683    3.7438177438
H        2.1449955556   -0.5878196832   -1.2071170788
H        0.0681204844    0.1430900244   -0.0568004809
H        3.9509610439   -1.6973028427    0.0979202476
H       -0.1932803079   -0.2234066143    2.3696999162
H        1.5105354057   -2.4509610842    4.3426970527
H        2.4068703016   -0.9457202866    4.6450094307
H        0.6400936167   -0.9066698119    4.4696800397
19   

C        2.0190235690   -0.7821086851   -0.1503747249
C        0.8616004125   -0.3513086117    0.4987480145
C        3.0362864374   -1.3995794480    0.5832681696
C        0.7250747252   -0.5389365102    1.8776323891
C        2.9114550334   -1.5936233301    1.9668733952
C        1.7406401997   -1.1585090924    2.6278390218
C        4.0006464738   -2.2497473894    2.7296371082
C        1.5774294830   -1.3534898891    4.1148718770
N        4.1205631992   -3.5935134750    2.9593414674
N        5.0230584174   -1.5822189202    3.2959847654
N        5.2605922225   -3.6960030769    3.6954743125
N        5.7815365641   -2.5381362555    3.8890091877
H        2.1316802126   -0.6397121222   -1.2183143817
H        0.0699053601    0.1279790052   -0.0644092296
H        3.9412335195   -1.7389559730    0.0931156974
H       -0.1783066586   -0.1998977009    2.3696316060
H        1.6283280007   -2.4191859828    4.3592032300
H        2.3792070943   -0.8344592505    4.6494399300
H        0.6167329603   -0.9613985896    4.4599611187
19   

C        2.0163713081   -0.8108401329   -0.1449796138
C        0.8673359328   -0.3530580017    0.4994143777
C        3.0318690160   -1.4191448885    0.5983519216
C        0.7356728157   -0.5102953738    1.8821654397
C        2.9214957066   -1.5676318704    1.9894390053
C        1.7504629420   -1.1195608555    2.6421232130
C        3.9981609506   -2.2489430616    2.7439291312
C        1.5785550569   -1.2985965056    4.1302988693
N        4.3251693595   -3.5743982761    2.6467154221
N        4.8598830434   -1.6116876866    3.5592653039
N        5.3993441396   -3.7055194978    3.4719408010
N        5.7085473525   -2.5752188115    3.9973242896
H        2.1227910070   -0.6998198204   -1.2172763331
H        0.0763303058    0.1186889396   -0.0710279919
H        3.9260883173   -1.7881768840    0.1095597054
H       -0.1651281477   -0.1578919520    2.3694874852
H        1.6973145704   -2.3535359058    4.3968843069
H        2.3342942202   -0.7155603498    4.6655919426
H        0.5879851525   -0.9674688244    4.4542087617
19   

C        2.0175069576   -0.8413084488   -0.1367630355
C        0.8753797351   -0.3520775001    0.4944407427
C        3.0183261265   -1.4550978975    0.6210968623
C        0.7357359611   -0.4860024824    1.8781323209
C        2.9062723215   -1.5765858363    2.0161713816
C        1.7362815276   -1.0996010505    2.6540212287
C        3.9688229597   -2.2750414679    2.7657164490
C        1.5354310350   -1.2620491880    4.1409850664
N        4.4900016951   -3.5007435904    2.4457733680
N        4.6573535591   -1.7310448502    3.7899223344
N        5.4855353164   -3.6818648635    3.3555809627
N        5.5829152246   -2.6625651706    4.1300399140
H        2.1299119492   -0.7518101868   -1.2104690469
H        0.0948996638    0.1237922735   -0.0869727634
H        3.9051183411   -1.8501789361    0.1386842308
H       -0.1623681491   -0.1125176375    2.3546381100
H        1.7153041344   -2.3009543377    4.4348352956
H        2.2334898046   -0.6175771937    4.6837941249
H        0.5158020965   -0.9934342285    4.4308161136
19   

C        2.0025708381   -0.8660269545   -0.1323673923
C        0.8738740922   -0.3555365071    0.5031942607
C        3.0008120777   -1.4860358203    0.6228235244
C        0.7458313178   -0.4750244975    1.8884451301
C        2.9027742339   -1.5971760763    2.0219132325
C        1.7436361935   -1.0946941457    2.6641849726
C        3.9744814546   -2.2924191061    2.7533898635
C        1.5306939595   -1.2423376120    4.1517186938
N        4.6643416185   -3.3832874723    2.2900901501
N        4.5039126765   -1.8806023832    3.9255309946
N        5.5928172960   -3.6244050383    3.2548026635
N        5.5011104786   -2.7587271200    4.1976010744
H        2.1076824459   -0.7875000348   -1.2076823019
H        0.0947197044    0.1255822811   -0.0756794207
H        3.8774689177   -1.8923320667    0.1310531563
H       -0.1438376078   -0.0850983733    2.3676372202
H        1.7380363371   -2.2704813468    4.4645308022
H        2.1985291590   -0.5655264835    4.6931171475
H        0.4990737943   -1.0043585037    4.4254465731
19   

C        1.9927541749   -0.8803941467   -0.1334588029
C        0.8745741647   -0.3541665354    0.5043404641
C        2.9882869319   -1.5052167553    0.6201945975
C        0.7558317712   -0.4622172679    1.8902885024
C        2.8998683855   -1.6129742853    2.0227449082
C        1.7500598044   -1.0878931681    2.6673893615
C        3.9847233421   -2.2993167802    2.7395063757
C        1.5247641432   -1.2126900910    4.1559626329
N        4.8246099596   -3.2320817668    2.1830944870
N        4.3631397251   -2.0580804643    4.0145574999
N        5.6888220762   -3.5494277902    3.1842028889
N        5.4233101956   -2.8728043911    4.2407263141
H        2.0933520165   -0.8090224780   -1.2097183891
H        0.0969189779    0.1315021818   -0.0727598090
H        3.8569668848   -1.9160041011    0.1182234945
H       -0.1268625001   -0.0574012681    2.3700609439
H        1.6891400733   -2.2450851591    4.4797199386
H        2.2115203984   -0.5532808373    4.6951989010
H        0.5012942098   -0.9350590749    4.4227856725
19   

C        1.9751746793   -0.9092803181   -0.1273219477
C        0.8636844237   -0.3743236241    0.5117936291
C        2.9736800448   -1.5284506101    0.6260393643
C        0.7566937558   -0.4661702070    1.8989347574
C        2.8958956685   -1.6285105727    2.0320643820
C        1.7533187832   -1.0870386955    2.6784127058
C        3.9953571539   -2.2994207211    2.7397823891
C        1.5301764753   -1.1696104362    4.1709820601
N        4.9751440776   -3.0481038544    2.1329050191
N        4.2340750000   -2.2555283306    4.0704810047
N        5.7819486380   -3.4490449844    3.1512460789
N        5.3548317487   -2.9920371087    4.2697954518
H        2.0695462665   -0.8480694350   -1.2047828962
H        0.0833290158    0.1079011964   -0.0645637524
H        3.8359975017   -1.9406250848    0.1146513711
H       -0.1205828652   -0.0495328529    2.3785227077
H        1.6103582803   -2.2070788772    4.5096075728
H        2.2692226007   -0.5571747158    4.6963503512
H        0.5349256366   -0.8061580719    4.4413099650
19   

C        1.9490655057   -0.9392297846   -0.1206441932
C        0.8401434380   -0.4037150197    0.5211323205
C        2.9563331629   -1.5452180494    0.6313393292
C        0.7468496905   -0.4782175820    1.9099013607
C        2.8896277786   -1.6356760368    2.0395685775
C        1.7523652063   -1.0857150915    2.6891941157
C        4.0006950205   -2.2926900077    2.7421174567
C        1.5537867140   -1.1137794016    4.1875480524
N        5.1070252582   -2.8291813272    2.1268050602
N        4.1128394592   -2.4722962588    4.0784265762
N        5.8625817558   -3.3241668189    3.1428340785
N        5.2891787733   -3.1184640543    4.2699205060
H        2.0350261768   -0.8885764584   -1.1993624208
H        0.0529188501    0.0687632160   -0.0539591316
H        3.8146632498   -1.9578496633    0.1138339669
H       -0.1260297648   -0.0545750565    2.3913616325
H        1.5254243009   -2.1473227421    4.5457395093
H        2.3655819955   -0.5758853840    4.6865221981
H        0.6119172501   -0.6355366648    4.4700802116
19   

C        1.9397291543   -0.9759628907   -0.1335139173
C        0.8298278887   -0.4379793481    0.5058232826
C        2.9529089005   -1.5676192967    0.6223610931
C        0.7431597821   -0.4916918840    1.8963802848
C        2.8879203361   -1.6436113369    2.0305377487
C        1.7547527206   -1.0844898192    2.6784273693
C        4.0035603975   -2.2841938382    2.7410324163
C        1.5877686869   -1.0618280453    4.1804203793
N        5.2141962757   -2.6012214907    2.1730064135
N        4.0017280163   -2.6898776219    4.0314136977
N        5.9202590515   -3.1903403108    3.1745676429
N        5.2211477540   -3.2418018080    4.2474333517
H        2.0217086755   -0.9380213848   -1.2130575027
H        0.0384617072    0.0236016447   -0.0724206678
H        3.8127860532   -1.9844142033    0.1106087341
H       -0.1263947891   -0.0605667683    2.3772249672
H        1.4549220906   -2.0795937553    4.5596094260
H        2.4648991304   -0.6090687877    4.6527415288
H        0.7120151088   -0.4748980353    4.4707098859
19   

C        1.9090915546   -1.0029488274   -0.1125711563
C        0.8082647849   -0.4509584052    0.5335650836
C        2.9278874694   -1.5921168886    0.6387086606
C        0.7366044001   -0.4855532019    1.9265008386
C        2.8717613131   -1.6541421603    2.0457227526
C        1.7538471665   -1.0763453883    2.7011190506
C        3.9940132613   -2.2776808864    2.7619233294
C        1.6297405030   -1.0282859268    4.2059243054
N        5.2713319793   -2.3887778346    2.2706952538
N        3.9187161950   -2.8978611801    3.9607069138
N        5.9471557748   -3.0694216813    3.2349154246
N        5.1677585773   -3.3633119724    4.2099156432
H        1.9798370364   -0.9761962433   -1.1932317183
H        0.0136623610    0.0090272227   -0.0414898087
H        3.7852115722   -2.0187879634    0.1305042643
H       -0.1220248858   -0.0408617556    2.4145679188
H        1.4306186797   -2.0304230527    4.5974562501
H        2.5533201166   -0.6454588186    4.6510358674
H        0.8108683993   -0.3711963264    4.5116078685
19   

C        1.9022675242   -1.0184999515   -0.1187446557
C        0.8082540961   -0.4504655570    0.5285269158
C        2.9191408596   -1.6121580465    0.6327588256
C        0.7410877418   -0.4719041887    1.9230178928
C        2.8608232298   -1.6648955661    2.0374840594
C        1.7560233698   -1.0682433815    2.6948031379
C        3.9825596008   -2.2750299477    2.7698264874
C        1.6579629687   -1.0183132297    4.2007196757
N        5.3014610118   -2.1880987282    2.4044585202
N        3.8556228128   -3.0999417212    3.8315526837
N        5.9514449544   -2.9592033187    3.3175824408
N        5.1188726622   -3.4851778188    4.1402928613
H        1.9693740781   -0.9988424005   -1.1997749459
H        0.0161696989    0.0129693129   -0.0472186715
H        3.7768489430   -2.0482496247    0.1331558977
H       -0.1094296218   -0.0143703120    2.4133869659
H        1.4310306852   -2.0142338140    4.5929389268
H        2.6036227716   -0.6745665762    4.6314017300
H        0.8688372376   -0.3316779831    4.5194904370
19   

C        1.8963104375   -1.0356748477   -0.1187592711
C        0.8151779257   -0.4424169389    0.5304090451
C        2.9077494100   -1.6406420146    0.6320697863
C        0.7545543496   -0.4496902709    1.9262252763
C        2.8512657270   -1.6791376454    2.0352382057
C        1.7644236525   -1.0571433436    2.6948285437
C        3.9675159454   -2.2887608050    2.7842942818
C        1.6866159123   -1.0128058680    4.2014027210
N        5.2953449402   -2.0127009410    2.5919294765
N        3.8267416922   -3.2988994247    3.6668802680
N        5.9342250107   -2.8689925596    3.4346872067
N        5.0888838891   -3.6106657647    4.0540052689
H        1.9575471958   -1.0256276573   -1.2002574098
H        0.0280649414    0.0294996833   -0.0452564057
H        3.7592571395   -2.0941920824    0.1376632896
H       -0.0849052896    0.0256796469    2.4186397773
H        1.4991720768   -2.0166341066    4.5944255007
H        2.6291039959   -0.6429673669    4.6172955181
H        0.8807200870   -0.3523979383    4.5333579808
19   

C        1.8704605353   -1.0546425978   -0.1293045939
C        0.8092872163   -0.4414294029    0.5362563567
C        2.8870048762   -1.6701148466    0.6066597203
C        0.7716086790   -0.4409003872    1.9336252105
C        2.8533038840   -1.6931356259    2.0094025463
C        1.7874170653   -1.0575900166    2.6861989474
C        3.9635459484   -2.3212377786    2.7613959464
C        1.7382439130   -1.0266825417    4.1938129526
N        5.2507584318   -1.8596219186    2.8180609900
N        3.8569347220   -3.4949659592    3.4128803299
N        5.8984916061   -2.7939877322    3.5660208274
N        5.0965192756   -3.7367921758    3.9083288662
H        1.9111251382   -1.0527085567   -1.2118078811
H        0.0186041685    0.0379108934   -0.0282726714
H        3.7225636193   -2.1421928792    0.1029588420
H       -0.0537101645    0.0458542907    2.4386320013
H        1.6372744998   -2.0439778186    4.5843598668
H        2.6605354789   -0.5900797247    4.5898236828
H        0.8918993961   -0.4312884419    4.5473645268
19   

C        1.8482178639   -1.0720758961   -0.1390923725
C        0.8045628645   -0.4377975996    0.5354729531
C        2.8740286291   -1.6827018584    0.5883561805
C        0.7898098197   -0.4160937675    1.9334916730
C        2.8707783298   -1.6678791825    1.9909939390
C        1.8153108104   -1.0264682970    2.6776962954
C        3.9666648118   -2.3211818288    2.7465600194
C        1.7844162558   -0.9938501855    4.1856395740
N        5.1318352381   -1.7238200215    3.1445448374
N        3.9413501959   -3.6094885617    3.1355332295
N        5.7986987416   -2.7156630326    3.7953891264
N        5.1141467184   -3.8023299703    3.7898292792
H        1.8659193990   -1.0930274771   -1.2220100179
H        0.0067259750    0.0370231203   -0.0227801476
H        3.6909461855   -2.1796558920    0.0784171175
H       -0.0260809537    0.0795017654    2.4451712436
H        1.7628744325   -2.0144282993    4.5805586875
H        2.6792123511   -0.4914280904    4.5663059210
H        0.9023004901   -0.4598445815    4.5496036920
19   

C        1.8273475035   -1.0902458777   -0.1360750748
C        0.7957997881   -0.4386858609    0.5397304821
C        2.8592003969   -1.6925847526    0.5894060657
C        0.7965116940   -0.3966444966    1.9370608246
C        2.8822410815   -1.6431000673    1.9916497692
C        1.8291141332   -0.9971011061    2.6798095479
C        3.9681802901   -2.3195676378    2.7367815640
C        1.7974202327   -0.9600217123    4.1878764839
N        4.9622058099   -1.7022724360    3.4484600123
N        4.0708075598   -3.6576991052    2.8548130915
N        5.6715667321   -2.7342688656    3.9808247096
N        5.1592158357   -3.8609273914    3.6388321768
H        1.8292914073   -1.1342042586   -1.2184500197
H       -0.0074482482    0.0290428931   -0.0167474368
H        3.6613444532   -2.2111800402    0.0774406931
H       -0.0149401563    0.1049330273    2.4499798610
H        1.8703196926   -1.9756077322    4.5897198918
H        2.6416416287   -0.3740588646    4.5639837906
H        0.8695630300   -0.5090888969    4.5504950179
19   

C        1.8159269506   -1.1052480924   -0.1279673166
C        0.7917547892   -0.4378133694    0.5412708788
C        2.8469706095   -1.7016493895    0.6027870975
C        0.7987715320   -0.3770216212    1.9371161897
C        2.8835714748   -1.6292174262    2.0052937515
C        1.8315385312   -0.9706701225    2.6858215172
C        3.9687841710   -2.3149232206    2.7343806191
C        1.7861101585   -0.9205071844    4.1934921320
N        4.8011307358   -1.7586529999    3.6708810765
N        4.2317044670   -3.6320631096    2.6076443522
N        5.5817076501   -2.7962893523    4.0770243440
N        5.2546201470   -3.8758808234    3.4646250940
H        1.8125782677   -1.1677809732   -1.2094331792
H       -0.0118146505    0.0252289596   -0.0186545498
H        3.6408062621   -2.2352566618    0.0928353498
H       -0.0100888016    0.1333516719    2.4454581464
H        1.9299208051   -1.9228633124    4.6091803291
H        2.5799935896   -0.2675577841    4.5684927528
H        0.8239603935   -0.5372147256    4.5444003261
19   

C        1.8115601082   -1.1220721471   -0.1177542811
C        0.7970170749   -0.4336635479    0.5421012022
C        2.8336651288   -1.7232022736    0.6206990238
C        0.8056141384   -0.3571096213    1.9362439453
C        2.8746337864   -1.6393703907    2.0247449221
C        1.8294205531   -0.9554532675    2.6944537541
C        3.9599924878   -2.3277345958    2.7434725150
C        1.7671404656   -0.8845850223    4.2010434798
N        4.6510348314   -1.8762608135    3.8395696773
N        4.3910727088   -3.5643991358    2.4127319845
N        5.5133503412   -2.8866434973    4.1321142680
N        5.3644302630   -3.8599793159    3.3098409626
H        1.8087925708   -1.1969837363   -1.1984480588
H       -0.0001396876    0.0335445222   -0.0235028183
H        3.6197032908   -2.2692882320    0.1114845431
H        0.0028136151    0.1701044460    2.4369686888
H        1.9144262765   -1.8792314751    4.6334712173
H        2.5484326948   -0.2163690988    4.5755286903
H        0.7970363532   -0.5071048816    4.5360392997
19   

C        1.8008121990   -1.1430730848   -0.1135878058
C        0.7982317720   -0.4343595914    0.5396753299
C        2.8149769374   -1.7510607939    0.6292617952
C        0.8127669049   -0.3431517030    1.9317024937
C        2.8618877488   -1.6617753798    2.0359765664
C        1.8281938520   -0.9488275322    2.6964931493
C        3.9514987207   -2.3480409588    2.7456013570
C        1.7580302979   -0.8482805325    4.2014574212
N        4.5098278123   -2.0275471336    3.9587106981
N        4.5575342931   -3.4537549456    2.2563246309
N        5.4619607811   -2.9772192500    4.1594642900
N        5.4904297559   -3.8003373587    3.1773273540
H        1.7967794358   -1.2272939285   -1.1936086416
H        0.0070288430    0.0389942053   -0.0291776876
H        3.5911288012   -2.3052202828    0.1136990479
H        0.0192397985    0.2032782630    2.4265878519
H        1.8565562980   -1.8405709428    4.6524324415
H        2.5627101863   -0.2056494124    4.5712146874
H        0.8027893515   -0.4238258794    4.5226549368
19   

C        1.7851214336   -1.1874484520   -0.1204028171
C        0.7952333761   -0.4554599841    0.5233214972
C        2.7929167991   -1.7972298792    0.6288528625
C        0.8181685846   -0.3410828690    1.9123846326
C        2.8473026993   -1.6936119805    2.0374209285
C        1.8268858853   -0.9486340175    2.6856255524
C        3.9413727971   -2.3720542649    2.7462663155
C        1.7602338088   -0.7999966357    4.1871971016
N        4.3618243717   -2.2061839424    4.0441019189
N        4.7209919248   -3.3071917447    2.1543707971
N        5.4021292413   -3.0688869180    4.1883441673
N        5.6104840218   -3.7051975189    3.0967460862
H        1.7779143778   -1.2872297862   -1.1990964922
H        0.0091449965    0.0204402133   -0.0504863292
H        3.5567952611   -2.3632138080    0.1082722281
H        0.0355279776    0.2281291125    2.3988588703
H        1.7762109776   -1.7839582475    4.6657652302
H        2.6102795678   -0.2106964203    4.5441242289
H        0.8410158692   -0.2923603845    4.4923727939
19   

C        1.7690019978   -1.2234258967   -0.1251564307
C        0.7811884828   -0.4865484393    0.5147002862
C        2.7815467042   -1.8227623470    0.6257991706
C        0.8131257322   -0.3543156570    1.9014723610
C        2.8426805552   -1.7077621576    2.0346118930
C        1.8264778898   -0.9514359991    2.6772974018
C        3.9456562309   -2.3727523235    2.7424947441
C        1.7803580081   -0.7543787605    4.1742560602
N        4.2170642934   -2.4062428746    4.0896770967
N        4.8977458642   -3.0862967864    2.0958680308
N        5.3456891599   -3.1542510836    4.2048852040
N        5.7398683786   -3.5478279708    3.0524418029
H        1.7571037039   -1.3348707569   -1.2026727932
H       -0.0083634104   -0.0180441578   -0.0604439772
H        3.5406506776   -2.3925026759    0.1026114576
H        0.0347202409    0.2239463875    2.3840470880
H        1.6934641734   -1.7212423534    4.6791663254
H        2.6876076678   -0.2468291860    4.5157220236
H        0.9217192075   -0.1431235982    4.4655775890
