20   
Generated by ForceBalance from scan.xyz: Frame 1 of 24
C       -1.2714147998   -1.2145815551   -0.1286649848
C       -2.4570690477   -0.5674781433   -0.8036798904
C        1.4747275825    0.5661909679   -2.2318818394
C        0.9022623957    1.9123188025    2.6717826260
N       -0.1673990267   -0.3869301160    0.1544702165
O       -1.2153525396   -2.3982262163    0.1672633192
O       -1.1909155267    2.0844013314    0.1908230095
O        0.5213757351    1.4616654885   -1.6215594518
P        0.0226644075    1.2905353883   -0.1006635627
S        1.7376687809    1.7315202945    1.0410226172
H       -2.1598019947   -0.1110373951   -1.7533721402
H       -2.8621399228    0.2351811922   -0.1828537045
H       -3.2104760595   -1.3340728280   -0.9826431755
H        1.5151396658    0.8436411361   -3.2850837192
H        1.1468827879   -0.4717742868   -2.1308173405
H        2.4640906074    0.6926368013   -1.7818150652
H        1.6722523594    2.2471405630    3.3689909822
H        0.4925403723    0.9594513849    3.0106695189
H        0.1124958599    2.6598575430    2.5996696336
H        0.5954635367   -0.8942092955    0.5963425632
20   
Generated by ForceBalance from scan.xyz: Frame 2 of 24
C       -1.2314527868   -1.1515260833   -0.0871008832
C       -2.4664816725   -0.5349274924   -0.6983378844
C        1.4291333217    0.5010133428   -2.2888656191
C        0.7949675838    1.9182608041    2.6758490073
N       -0.1255266159   -0.3053498190    0.1285904290
O       -1.1371522230   -2.3315398811    0.2143988768
O       -1.2026184454    2.1317348593    0.0537061314
O        0.6578056938    1.5296143395   -1.6331084117
P        0.0486672498    1.3698288469   -0.1510757313
S        1.6867388655    1.8756597854    1.0662089499
H       -2.2352292121   -0.0781871294   -1.6658433327
H       -2.8528787379    0.2649486737   -0.0627476549
H       -3.2108280892   -1.3200970571   -0.8282492557
H        1.6400722064    0.8792240929   -3.2890045081
H        0.8575469816   -0.4277876182   -2.3524349853
H        2.3701610548    0.3242824173   -1.7586261587
H        1.5222310450    2.2547128848    3.4168362243
H        0.4287374432    0.9270721714    2.9487400034
H       -0.0324260827    2.6258044844    2.6198762150
H        0.6676912494   -0.8069150510    0.5219017476
20   
Generated by ForceBalance from scan.xyz: Frame 3 of 24
C       -1.1433048317   -1.1595780140   -0.0687951532
C       -2.3997253959   -0.5551911826   -0.6479199795
C        1.3755118216    0.4792328567   -2.3377443068
C        0.7339970693    1.9324908498    2.7317047562
N       -0.0405818009   -0.3045320077    0.1273417036
O       -1.0301838974   -2.3402020006    0.2241498467
O       -1.1513430251    2.1141045973    0.0377858678
O        0.8189380424    1.5623954629   -1.5641878066
P        0.1213310043    1.3762987184   -0.1241914177
S        1.6944575153    1.9036737755    1.1619550665
H       -2.1993190280   -0.0941312272   -1.6201447130
H       -2.7786760996    0.2400677925   -0.0024187358
H       -3.1379429217   -1.3488767980   -0.7599899842
H        1.7418821940    0.9316406676   -3.2592129701
H        0.6109037785   -0.2663263279   -2.5672893512
H        2.2067095034    0.0066393351   -1.8060352690
H        1.4205066148    2.2881944004    3.5020862421
H        0.3789084753    0.9341032616    2.9931841244
H       -0.1059058176    2.6210600422    2.6372892552
H        0.7618867027   -0.8037787407    0.5052100974
20   
Generated by ForceBalance from scan.xyz: Frame 4 of 24
C        0.1498223121   -1.8834021529   -0.5673720910
C       -0.0712413162   -3.3818754684   -0.6480752348
C       -0.6336071864    1.0157029000   -1.9562216548
C        0.6489288872    0.2304530803    3.3266103869
N       -0.8402812643   -1.1829039510    0.1155370612
O        1.1186101520   -1.3176202600   -1.0534649972
O       -1.9204491309    0.6248442904    1.6116351976
O       -0.6530803443    1.3935121953   -0.5602975395
P       -0.7578169771    0.4323681796    0.7089297431
S        1.1018706907    0.7501143772    1.6217733610
H       -1.0955871689   -3.6226400495   -0.9495493085
H        0.1061420422   -3.8339183801    0.3339858778
H        0.6318560074   -3.8059166722   -1.3646300057
H       -0.9000956858    1.9181190640   -2.5067651710
H       -1.3694985664    0.2323721037   -2.1533077811
H        0.3640140795    0.6715744931   -2.2262468347
H        1.4857455927    0.5292221600    3.9614954934
H        0.5197647457   -0.8518996999    3.3876776402
H       -0.2614838344    0.7373127759    3.6455660874
H       -1.5957583900   -1.7146884072    0.5393655940
20   
Generated by ForceBalance from scan.xyz: Frame 5 of 24
C        0.1914648906   -1.9000361810   -0.5896454684
C       -0.0427131248   -3.3961962310   -0.6754860689
C       -0.7083523210    1.0001082285   -1.9595726735
C        0.6091041481    0.2429476214    3.3607686987
N       -0.7915388925   -1.1933995206    0.0975476256
O        1.1645666291   -1.3409162773   -1.0746850796
O       -1.8833692751    0.6405279590    1.5479810730
O       -0.4822441278    1.3669030326   -0.5782583890
P       -0.6913052967    0.4199647046    0.6897433938
S        1.1413249795    0.7053023935    1.6622646410
H       -1.0700124255   -3.6273318651   -0.9745670666
H        0.1339712913   -3.8530607865    0.3044675116
H        0.6545409099   -3.8236436360   -1.3957275260
H       -0.8013930996    1.9414375131   -2.5014483445
H       -1.6316291609    0.4248703024   -2.0639454124
H        0.1450427907    0.4273985302   -2.3219840505
H        1.4317824083    0.5300758918    4.0190891231
H        0.4414252132   -0.8326658410    3.4430601409
H       -0.2948483014    0.7865517009    3.6343865036
H       -1.5561338279   -1.7180202220    0.5134529552
20   
Generated by ForceBalance from scan.xyz: Frame 6 of 24
C        0.2398924497   -1.9169466141   -0.6035772065
C       -0.0068290504   -3.4109168874   -0.6951485982
C       -0.7810545891    1.0227303335   -1.9261848592
C        0.5687274244    0.2776961825    3.4011390988
N       -0.7328036640   -1.2072628520    0.0962343459
O        1.2115377555   -1.3617833139   -1.0950790531
O       -1.8449258943    0.6567239185    1.4841334179
O       -0.3170846047    1.3264877266   -0.5896209940
P       -0.6203100108    0.4067653210    0.6803706319
S        1.1821014964    0.6696033987    1.7120704574
H       -1.0384341902   -3.6324471492   -0.9867461388
H        0.1745316712   -3.8741418329    0.2809613528
H        0.6808896593   -3.8401537679   -1.4234716729
H       -0.6896979216    1.9527902330   -2.4873668175
H       -1.8263993440    0.7039757944   -1.9150626911
H       -0.1416364572    0.2535830948   -2.3608489631
H        1.3711850376    0.5671926682    4.0828939731
H        0.3701990897   -0.7900186940    3.5118715133
H       -0.3312999288    0.8518483909    3.6198257539
H       -1.5013155146   -1.7272584935    0.5102376282
20   
Generated by ForceBalance from scan.xyz: Frame 7 of 24
C        0.2895822441   -1.9502766476   -0.6116828911
C        0.0169980225   -3.4394393848   -0.7178714162
C       -0.8445855212    1.0593964205   -1.9056371703
C        0.5184636635    0.3123431258    3.4086410400
N       -0.6662008382   -1.2350543973    0.1069004375
O        1.2649088596   -1.4057237748   -1.1059903230
O       -1.8217376122    0.6754421525    1.3798843582
O       -0.1782399689    1.2594565691   -0.6377802920
P       -0.5589067565    0.3925384873    0.6484017846
S        1.2048496144    0.6684647580    1.7394780212
H       -1.0208743828   -3.6409528334   -1.0017374586
H        0.2006101858   -3.9172905180    0.2507200250
H        0.6904056218   -3.8711171525   -1.4580899718
H       -0.6032415390    1.9349927669   -2.5080777258
H       -1.9272749374    0.9928997159   -1.7706014448
H       -0.4532691999    0.1588484683   -2.3826240993
H        1.2938472214    0.6096558257    4.1177009977
H        0.3086696744   -0.7519747624    3.5306652133
H       -0.3857164485    0.8960964729    3.5800085079
H       -1.4487029275   -1.7439499108    0.5074869238
20   
Generated by ForceBalance from scan.xyz: Frame 8 of 24
C       -1.2542470967   -1.4371518720    1.0337662405
C       -1.8192164701   -1.1945377803    2.4116627877
C       -0.2448412231    2.1929880232   -1.1764232526
C        2.7844781338   -0.3535436194    1.0020944785
N       -0.4681509060   -0.4125578459    0.4717952475
O       -1.4336546524   -2.4598337541    0.3901999483
O       -0.8900294004    1.7415470557    2.0152285628
O        0.6772155728    1.7827902220   -0.1333473069
P        0.1003255615    1.0315594983    1.1750330252
S        1.8488874774    0.6161374608    2.2512900886
H       -2.3811711327   -0.2589625547    2.4481910028
H       -1.0065948854   -1.1033131954    3.1403093642
H       -2.4529024191   -2.0407998454    2.6754908233
H        0.3583481444    2.7156944214   -1.9183126846
H       -1.0007003616    2.8654137239   -0.7645247242
H       -0.7275890533    1.3240010339   -1.6322737938
H        3.7421269831   -0.6001112401    1.4649499738
H        2.9603248310    0.2428326630    0.1057258022
H        2.2621101918   -1.2799116361    0.7547215721
H       -0.0602561890   -0.6975492520   -0.4162079448
20   
Generated by ForceBalance from scan.xyz: Frame 9 of 24
C       -1.2028906435   -1.4935770048    1.0295257176
C       -1.7349276176   -1.2189814344    2.4151618013
C       -0.2378155305    2.2983789886   -1.1989078140
C        2.7718532776   -0.3812097497    1.0571593353
N       -0.4513361904   -0.4705487446    0.4231324269
O       -1.3825058376   -2.5372828986    0.4203530623
O       -0.9362043324    1.7632771218    1.8288677219
O        0.6926564391    1.6836310143   -0.2676240339
P        0.0891261388    1.0105143037    1.0712097837
S        1.7988367155    0.6508253782    2.2258217150
H       -2.3110630120   -0.2913307402    2.4380950730
H       -0.9047545971   -1.0954184408    3.1190610026
H       -2.3489024696   -2.0655147714    2.7212591303
H        0.3741983026    2.7236176352   -1.9938651529
H       -0.8054846538    3.0825801964   -0.6943632254
H       -0.9201433924    1.5493137101   -1.6116751451
H        3.7079860388   -0.6152188359    1.5680018551
H        2.9881372575    0.1731035230    0.1429365022
H        2.2479237026   -1.3115859912    0.8299277787
H       -0.0737588228   -0.7532837347   -0.4786923712
20   
Generated by ForceBalance from scan.xyz: Frame 10 of 24
C       -1.2324344155   -1.5749084828    1.0745605642
C       -1.7068362407   -1.2734116916    2.4759103736
C       -0.2442113172    2.3896122784   -1.1894865371
C        2.7063371962   -0.3848626373    1.1095104719
N       -0.5025833157   -0.5649826716    0.4243623930
O       -1.4410463872   -2.6283665002    0.4918827694
O       -1.0456961073    1.7400112835    1.6974141807
O        0.6151618171    1.5575532870   -0.3638121668
P        0.0026281311    0.9553349805    1.0054573877
S        1.6862740259    0.6675699091    2.2188625453
H       -2.2897669610   -0.3497126531    2.5011944189
H       -0.8487784657   -1.1294361662    3.1414003313
H       -2.3023328721   -2.1159283847    2.8262677918
H        0.3911893082    2.7681605482   -1.9897567549
H       -0.6483155235    3.2132888945   -0.5987354063
H       -1.0609309756    1.7950172482   -1.6089677274
H        3.6266688751   -0.5981372088    1.6568086620
H        2.9474657611    0.1481695918    0.1889100929
H        2.1960067504   -1.3240329645    0.8880419968
H       -0.1806168680   -0.8431652048   -0.4999080825
20   
Generated by ForceBalance from scan.xyz: Frame 11 of 24
C       -1.2534748370   -1.6248042064    1.1702873394
C       -1.6961519877   -1.2817176961    2.5726479986
C       -0.2362106637    2.4978424848   -1.1639270393
C        2.6212098416   -0.3194780352    1.1789003936
N       -0.5720315209   -0.6204012939    0.4618596847
O       -1.4524273546   -2.7036284926    0.6330500688
O       -1.1781179207    1.7495685429    1.6040379251
O        0.4905076765    1.4695215921   -0.4381005529
P       -0.1151908895    0.9397350860    0.9647451287
S        1.5529900667    0.7504365190    2.2238765503
H       -2.3223383874   -0.3859539061    2.5739446675
H       -0.8269128245   -1.0674299624    3.2033791715
H       -2.2420641892   -2.1324422050    2.9793530992
H        0.4164120484    2.7959539138   -1.9841621052
H       -0.4436561124    3.3475018451   -0.5115400121
H       -1.1728464711    2.0929293521   -1.5556695439
H        3.5398491013   -0.4795680480    1.7468206643
H        2.8591931742    0.1777338376    0.2375205831
H        2.1420845825   -1.2825279031    0.9929710172
H       -0.2895011371   -0.9087159156   -0.4720836013
20   
Generated by ForceBalance from scan.xyz: Frame 12 of 24
C       -1.2040724492   -1.7502139377    1.1121651148
C       -1.6420348763   -1.4059588141    2.5158391278
C       -0.1261199715    2.5590558810   -1.1582874572
C        2.5942145384   -0.2971397913    1.1632411783
N       -0.5669137231   -0.7310038801    0.3836541452
O       -1.3731129935   -2.8406757628    0.5891234459
O       -1.2687163993    1.6576292992    1.4622256965
O        0.4233021710    1.3558661943   -0.5571220965
P       -0.1810387120    0.8538483465    0.8576164942
S        1.4642416968    0.7531838790    2.1614247106
H       -2.3003282385   -0.5332297656    2.5130715744
H       -0.7743349514   -1.1533539347    3.1341359588
H       -2.1537643867   -2.2697907356    2.9389841386
H        0.4292310490    2.7029753982   -2.0848427708
H        0.0159324929    3.4143650735   -0.4947562058
H       -1.1893212487    2.4268733402   -1.3682971970
H        3.5077228821   -0.4079590437    1.7508775045
H        2.8300388183    0.1864296180    0.2141189633
H        2.1563677735   -1.2820790763    0.9906303826
H       -0.3081525785   -1.0073854970   -0.5607707772
20   
Generated by ForceBalance from scan.xyz: Frame 13 of 24
C       -1.2265404738   -1.8286280894    1.0641541133
C       -1.6574713398   -1.4842834978    2.4702141060
C       -0.0338874367    2.6142745061   -1.1183263967
C        2.5192814189   -0.2545669883    1.1381325764
N       -0.6130606881   -0.8030196786    0.3249704744
O       -1.3823778667   -2.9243331854    0.5483196181
O       -1.3966888501    1.5891935207    1.3614163244
O        0.3027876550    1.2814011001   -0.6508094447
P       -0.2885670498    0.7991640791    0.7763041460
S        1.3458077672    0.7811118302    2.1010692162
H       -2.3431272011   -0.6326684264    2.4662647364
H       -0.7915920854   -1.1989166830    3.0764608729
H       -2.1385556969   -2.3588617447    2.9069697397
H        0.3443356909    2.6724368740   -2.1387148786
H        0.4547116994    3.3661206573   -0.4933926119
H       -1.1148647430    2.7610958554   -1.0995484292
H        3.4307080596   -0.3218688834    1.7355155703
H        2.7471422358    0.2128968396    0.1790715918
H        2.1146905339   -1.2567775788    0.9850652451
H       -0.3747739519   -1.0719089006   -0.6271202701
20   
Generated by ForceBalance from scan.xyz: Frame 14 of 24
C       -1.2310671385   -1.8677825889    1.0827854406
C       -1.6563528925   -1.4992019129    2.4845071027
C        0.0692679516    2.6257687809   -1.0897282376
C        2.4678597764   -0.1823514043    1.0954302679
N       -0.6467342738   -0.8464104728    0.3145318760
O       -1.3652486665   -2.9789247992    0.5949699733
O       -1.4994580187    1.5467717290    1.2958607822
O        0.1785070181    1.2234488683   -0.7330744915
P       -0.3738457649    0.7752303876    0.7200189646
S        1.2743254744    0.8588664844    2.0270169753
H       -2.3607681419   -0.6632352351    2.4674006942
H       -0.7913628353   -1.1804611112    3.0753090028
H       -2.1135530573   -2.3735572599    2.9465798182
H        0.3779465215    2.6911699462   -2.1327014011
H        0.7361039928    3.2248671814   -0.4631471777
H       -0.9611978648    2.9648030601   -0.9709974344
H        3.3892024161   -0.1927480761    1.6812640797
H        2.6680436148    0.2455078591    0.1119407373
H        2.0936613045   -1.2026973298    0.9943547251
H       -0.4140728796   -1.1314135578   -0.6344003539
20   
Generated by ForceBalance from scan.xyz: Frame 15 of 24
C       -1.1906524358   -1.9443691695    1.1270245743
C       -1.6444269892   -1.5717604088    2.5188383602
C        0.1663576645    2.5958923629   -1.0057738938
C        2.4397769933   -0.1103826444    1.0695099190
N       -0.6466818747   -0.9117260279    0.3445749265
O       -1.2681870159   -3.0694110552    0.6589531930
O       -1.5991853244    1.4397741981    1.3198588798
O        0.0498920776    1.1742036302   -0.7446668545
P       -0.4452028597    0.7248109587    0.7285402754
S        1.2244636393    0.9069486338    1.9995525303
H       -2.3981288319   -0.7808591111    2.4797860025
H       -0.8042908782   -1.1872273006    3.1064250020
H       -2.0499959309   -2.4620436237    2.9983995077
H        0.4637792373    2.6838446866   -2.0502526188
H        0.9310663571    3.0364182187   -0.3593384039
H       -0.7948120269    3.0861871991   -0.8389918981
H        3.3707239945   -0.0737055771    1.6388796479
H        2.6083975192    0.3002888178    0.0727374530
H        2.1015541064   -1.1455686562    0.9978594590
H       -0.3878525244   -1.2045060886   -0.5951719072
20   
Generated by ForceBalance from scan.xyz: Frame 16 of 24
C       -1.1706940013   -1.9733766101    1.1438828147
C       -1.6545973213   -1.6088816938    2.5275282085
C        0.2549653104    2.5596419710   -0.9938146206
C        2.3940419873   -0.0237952429    1.0229659020
N       -0.6576720131   -0.9276750099    0.3577486027
O       -1.1947828316   -3.1051611844    0.6861271252
O       -1.7011296012    1.3673811176    1.3460169085
O       -0.0952822242    1.1732289550   -0.7647076765
P       -0.5225779776    0.7189796504    0.7280177555
S        1.1693462669    0.9785279353    1.9575893075
H       -2.4391283810   -0.8497024458    2.4748571474
H       -0.8371938022   -1.1851783590    3.1203727953
H       -2.0273852772   -2.5118762006    3.0099675762
H        0.4497042192    2.6459269479   -2.0623814244
H        1.1501040312    2.8237043209   -0.4238724280
H       -0.5760590183    3.2086480757   -0.7078645521
H        3.3333347343    0.0459456290    1.5752480186
H        2.5381635814    0.3709304494    0.0156023711
H        2.0804574493   -1.0679230124    0.9747316936
H       -0.3736798202   -1.2212560170   -0.5743197934
20   
Generated by ForceBalance from scan.xyz: Frame 17 of 24
C       -1.1542717023   -1.9796074999    1.2379773646
C       -1.6569813325   -1.6309888779    2.6187751141
C        0.2850505469    2.5131497815   -0.9558918917
C        2.3157892770    0.0827963352    1.0785053247
N       -0.6869791848   -0.9169853064    0.4457471764
O       -1.1242004413   -3.1142994574    0.7873428576
O       -1.8311866232    1.3083052208    1.4487226393
O       -0.2772228866    1.2036443027   -0.7079358852
P       -0.6285303945    0.7383409404    0.8015483919
S        1.0771145100    1.0897438165    1.9899396120
H       -2.4828273997   -0.9177125755    2.5598489585
H       -0.8655414490   -1.1555027585    3.2075239291
H       -1.9777088604   -2.5497762754    3.1088049332
H        0.2717028614    2.6420915788   -2.0379213077
H        1.3100040641    2.5659464905   -0.5808844828
H       -0.3238193398    3.2870017583   -0.4818671845
H        3.2575920798    0.1930584066    1.6198233120
H        2.4474520283    0.4407890684    0.0554809699
H        2.0251334492   -0.9688429908    1.0703228989
H       -0.3839598137   -1.2066793232   -0.4813165070
20   
Generated by ForceBalance from scan.xyz: Frame 18 of 24
C       -1.0832694418   -2.0226371943    1.2097497564
C       -1.5878663130   -1.7177042345    2.6001241385
C        0.3568660572    2.4329550762   -0.9905468097
C        2.2754046897    0.0896429754    1.1272273285
N       -0.6665645522   -0.9301241151    0.4298459738
O       -1.0093866328   -3.1483164419    0.7413173493
O       -1.9058584827    1.2104915990    1.4790452911
O       -0.3999230624    1.2356868379   -0.7051135990
P       -0.6827561195    0.7239332446    0.8037449421
S        1.0229530218    1.1340067791    1.9761539797
H       -2.4509043367   -1.0487421877    2.5576564830
H       -0.8178648556   -1.2063924405    3.1871999551
H       -1.8542821353   -2.6581136349    3.0816409072
H        0.2156062047    2.6238426507   -2.0543584397
H        1.4164171667    2.2799245175   -0.7745039599
H       -0.0199164813    3.2787675314   -0.4106684617
H        3.2106840736    0.2351599298    1.6716508651
H        2.4198533787    0.3915561443    0.0880084588
H        1.9910407712   -0.9625186006    1.1708331167
H       -0.3654600822   -1.1946060071   -0.5051713299
20   
Generated by ForceBalance from scan.xyz: Frame 19 of 24
C       -1.0747173964   -1.9800847858    1.1696363300
C       -1.5403418633   -1.7201321885    2.5824175480
C        0.4016711721    2.3915309631   -1.0434038766
C        2.2221720765    0.1293825964    1.1758773536
N       -0.7051196899   -0.8595989606    0.4047256029
O       -0.9926486425   -3.0917276717    0.6700258989
O       -1.9742306012    1.2208862916    1.5288997495
O       -0.5387560933    1.3589593767   -0.6813996060
P       -0.7543301028    0.7865021700    0.8144318357
S        0.9631955292    1.2055925577    1.9726568076
H       -2.4182508032   -1.0693643636    2.5833063589
H       -0.7635596958   -1.2052330031    3.1573001846
H       -1.7710343010   -2.6773801492    3.0489503630
H        0.1224711162    2.7037052180   -2.0498529632
H        1.4206766129    1.9979818536   -1.0482256263
H        0.3355887655    3.2416943856   -0.3615386266
H        3.1186767142    0.2108334039    1.7940990203
H        2.4621445589    0.4570469046    0.1628560474
H        1.8879658812   -0.9087245306    1.1614283185
H       -0.4388678543   -1.0956619575   -0.5482751249
20   
Generated by ForceBalance from scan.xyz: Frame 20 of 24
C       -1.0406805942   -1.8529750522    1.1445501493
C       -1.4751436056   -1.6567758054    2.5770278167
C        0.4097463073    2.4415941342   -1.0511223200
C        2.1811048350    0.4259802776    1.2226717295
N       -0.7239494639   -0.6939961406    0.4119562193
O       -0.9418872700   -2.9422676607    0.6011756955
O       -2.0721381571    1.3077020754    1.5974618743
O       -0.6563621889    1.5874759021   -0.5944461569
P       -0.8397503675    0.9373795816    0.8701727479
S        0.8516248982    1.3775163547    2.0610963287
H       -2.3777797484   -1.0419809144    2.6209899792
H       -0.7036873982   -1.1295367151    3.1474972971
H       -1.6566685095   -2.6364182404    3.0181027465
H       -0.0169365110    3.0700457660   -1.8330726364
H        1.2159967649    1.8315258309   -1.4679808615
H        0.7906505313    3.0673292359   -0.2411738148
H        3.0290043960    0.4265700613    1.9108266768
H        2.4876588280    0.8927751835    0.2852728224
H        1.8653592545   -0.6030777322    1.0447463775
H       -0.4997212989   -0.8894703408   -0.5609000499
20   
Generated by ForceBalance from scan.xyz: Frame 21 of 24
C       -1.0201337996   -1.8552834228    1.0985644880
C       -1.4050656268   -1.7071238219    2.5509473336
C        0.4328958061    2.3046839367   -1.0784440566
C        2.1585530099    0.4071707658    1.2736545785
N       -0.7365235190   -0.6709872230    0.3930135030
O       -0.9336786605   -2.9263305587    0.5180893131
O       -2.1021040695    1.2837702572    1.6511851404
O       -0.7394355483    1.6676333321   -0.5377889905
P       -0.8762685706    0.9463838775    0.8987710076
S        0.8236239259    1.3769084414    2.0833274249
H       -2.3048120293   -1.0939158374    2.6468420219
H       -0.6132988495   -1.1997749128    3.1116011362
H       -1.5726235600   -2.7009051149    2.9650095503
H        0.0847511997    2.9163097138   -1.9106828518
H        1.1380621746    1.5533475628   -1.4471952281
H        0.9129600422    2.9380647729   -0.3289273425
H        2.9695606365    0.3516399739    2.0028188700
H        2.5278230342    0.8961602652    0.3709763555
H        1.8171285387   -0.6026465218    1.0416801460
H       -0.5571544504   -0.8355782989   -0.5950012635
20   
Generated by ForceBalance from scan.xyz: Frame 22 of 24
C       -1.5474424079   -1.6064703560   -0.1693541346
C       -2.4347091604   -0.8522597625   -1.1321502833
C        1.2069005298    0.9402712481   -1.8604953559
C        1.4631661498    2.4094987130    2.3040477337
N       -0.4879674311   -0.8871258909    0.4230587866
O       -1.6986106076   -2.7828349598    0.1166056072
O       -1.2295564229    1.6818440735    1.0382681556
O       -0.0328094926    1.1314524311   -1.1504233684
P       -0.2178922440    0.7943359052    0.4181819337
S        1.6680154720    0.8330830865    1.3764895661
H       -1.8504032308   -0.4331681100   -1.9548196797
H       -2.9221858169   -0.0152924797   -0.6219605933
H       -3.1870123354   -1.5398178616   -1.5171934970
H        0.9860988971    1.1516614573   -2.9070949324
H        1.5610320807   -0.0906284935   -1.7591938598
H        1.9669220318    1.6307493618   -1.4893048954
H        2.2644105825    2.4234185129    3.0451560369
H        0.4907695344    2.4284964796    2.7947622178
H        1.5614218143    3.2650822680    1.6356033649
H       -0.0470878787   -1.4136925666    1.1748005630
20   
Generated by ForceBalance from scan.xyz: Frame 23 of 24
C       -1.4600309455   -1.5866601493   -0.2028459480
C       -2.3898953722   -0.8150008544   -1.1102233051
C        1.1506173276    0.8285900404   -1.8622571872
C        1.4340749776    2.4611556224    2.3578481274
N       -0.4003960408   -0.8639141080    0.3863042954
O       -1.5743515716   -2.7769797327    0.0378388278
O       -1.2438727298    1.6513072427    1.0860736618
O       -0.0034369993    1.2393903572   -1.1003969380
P       -0.1918787388    0.8255840610    0.4492016227
S        1.6853169034    0.8964677277    1.4215906127
H       -1.8393172108   -0.3612624756   -1.9382522115
H       -2.8719647341   -0.0018597238   -0.5585738936
H       -3.1435498166   -1.5015669266   -1.4943796393
H        0.9554158811    1.1337089212   -2.8904959146
H        1.2796266479   -0.2575746028   -1.8154068402
H        2.0474960829    1.3261530274   -1.4860842448
H        2.2313242562    2.4926100356    3.1026178116
H        0.4593840095    2.4504934890    2.8443294125
H        1.5123736047    3.3221937963    1.6938352508
H        0.0798716639   -1.4098239335    1.0990745617
20   
Generated by ForceBalance from scan.xyz: Frame 24 of 24
C       -1.4491576387   -1.5455538440   -0.3180791399
C       -2.4168368528   -0.7410095006   -1.1548027684
C        1.0818817598    0.7323286853   -1.9529483670
C        1.3416295073    2.4873914772    2.3577078531
N       -0.3809219091   -0.8365749668    0.2699694575
O       -1.5427676847   -2.7474430411   -0.1311327012
O       -1.3015233254    1.6293672627    0.9958333673
O        0.0565363975    1.3310537780   -1.1338759401
P       -0.1960651163    0.8537045586    0.3876753189
S        1.6415891717    0.9265100690    1.4288153816
H       -1.8958060300   -0.1818956189   -1.9365708892
H       -2.9335137872   -0.0084582329   -0.5267544383
H       -3.1382342548   -1.4242383974   -1.6015449405
H        0.9767026662    1.1803887515   -2.9410508975
H        0.9436671145   -0.3509568382   -2.0153909884
H        2.0715165435    0.9579000602   -1.5452569280
H        2.1341247285    2.5436687050    3.1059588499
H        0.3652748490    2.4510698474    2.8395755826
H        1.4000783029    3.3472229635    1.6901810402
H        0.1399204261   -1.4085787324    0.9317084393
