40

C     -3.30865    3.94767    4.09685
C      3.06529    2.69489    3.03863
C      1.94773    1.79057    4.96912
C      2.14029    3.74168    2.99219
C      1.03977    2.84633    4.95527
C      2.96778    1.68852    4.00929
C      1.11038    3.80394    3.93549
C     -1.45975    2.37454    3.57931
C     -0.50455    0.69311    2.58005
C     -1.89722    3.75062    3.89515
C      0.21598   -0.13189    1.56770
C     -0.52337   -0.25836    0.22194
C     -0.53335    1.01868   -0.63104
C     -1.27626    2.22434   -0.03435
C     -0.62537    2.83136    1.21295
C      3.91422    0.51206    4.02196
N     -4.45995    4.06838    4.23590
N     -1.55111    1.33384    4.38481
N     -0.94237    0.26987    3.75362
N     -1.17097    4.83219    3.99297
N     -0.81867    2.01847    2.41290
N      0.15416    4.86818    3.83764
H      3.85749    2.65196    2.29476
H      1.85125    1.02624    5.73578
H      2.20035    4.49681    2.21219
H      0.26148    2.90327    5.70737
H      1.21811    0.28803    1.40182
H      0.34996   -1.11891    2.01715
H     -0.03946   -1.05340   -0.35666
H     -1.55160   -0.58978    0.41022
H      0.50347    1.31377   -0.84610
H     -0.98909    0.78256   -1.59954
H     -1.31546    3.01596   -0.79172
H     -2.31457    1.95967    0.19823
H      0.44880    2.97286    1.05556
H     -1.05624    3.81183    1.42327
H      4.37194    0.38063    5.00798
H      3.38121   -0.41664    3.78728
H      4.71729    0.63359    3.28993
H      0.50718    5.80951    3.95979
