29

C     -3.37069   -1.71850   -4.52212
C      1.71420    1.36137   -5.24828
C      0.90063    1.02516   -4.14999
C     -3.43412   -0.81128   -5.58535
C     -2.80621   -2.97603   -4.72181
C      1.98342    0.44774   -6.27491
C      0.32179   -0.24793   -4.03324
C     -2.96620   -1.18047   -6.84732
C     -2.27786   -3.35291   -5.96945
C      1.41400   -0.82470   -6.16942
C      0.61415   -1.13349   -5.05619
C     -2.40703   -2.44729   -7.03467
C      0.71438   -2.82002   -6.41778
C     -1.62763   -4.68274   -6.07600
N      1.44397   -1.93102   -7.02892
N     -0.44598   -5.02665   -6.46182
N      0.49457   -4.10533   -6.84373
O      0.18742   -2.44411   -5.20603
Br    -1.88495   -2.93357   -8.81406
H     -3.75237   -1.44318   -3.54291
H      2.14119    2.35921   -5.30102
H      0.71537    1.76507   -3.37649
H     -3.85933    0.17796   -5.44083
H     -2.72686   -3.67513   -3.89309
H      2.60350    0.71297   -7.12584
H     -0.31389   -0.52188   -3.19741
H     -3.04010   -0.49588   -7.68580
H     -2.22986   -5.53556   -5.76335
H      1.23291   -4.49998   -7.41055
