28

C      3.84480   -2.51380   -5.82325
C      5.87689   -2.17077   -4.51904
C      4.60006   -3.06563   -6.84933
C      6.64103   -2.72484   -5.54466
C      4.48252   -2.06037   -4.65006
C      5.99285   -3.16565   -6.70101
C      0.61881    0.51882    1.57683
C     -0.54499    0.88341    0.93203
C      1.75400   -0.09440    0.90638
C      1.94129   -0.84056   -2.54070
C      0.27543    0.14414   -1.06039
C     -1.70802    1.51538    1.64415
N     -0.71447    0.68572   -0.42014
N      2.40890   -0.79904   -1.33217
N      3.82632   -1.48347   -3.54862
N      2.57052   -1.37051   -3.67427
N      1.47649   -0.24524   -0.50259
O      2.81500   -0.45406    1.37658
S      0.30326   -0.22535   -2.77667
Br     7.02184   -3.92479   -8.11776
Br     0.84111    0.79232    3.44749
H      2.76736   -2.42644   -5.91340
H      6.34097   -1.81752   -3.60302
H      4.12409   -3.41835   -7.75840
H      7.71786   -2.81328   -5.44887
H     -1.40729    2.45138    2.12509
H     -2.08289    0.85819    2.43507
H     -2.50614    1.71423    0.92837
