27

C     -0.56802    2.09324   -2.47837
C      2.83188   -1.54148    0.27047
C      1.48757   -1.26052    0.52255
C      3.80012   -1.35159    1.25936
C      2.05951   -0.61557    2.79013
C     -1.76157    1.88722   -1.74418
C      1.08883   -0.78066    1.78529
C      3.39661   -0.89278    2.51626
C     -1.87612    1.16853   -0.57257
C     -3.82303    1.94868   -1.16161
C     -0.31648   -0.47770    2.13071
C     -5.28310    2.15517   -0.98289
N      0.45754    2.21287   -3.02483
N     -3.03277    2.37049   -2.09102
N     -1.24511    0.06312    1.41658
N     -0.95429    0.45094    0.13878
O     -3.16996    1.19081   -0.18422
Cl     4.59537   -0.66693    3.77594
H      3.13061   -1.91596   -0.70443
H      0.74867   -1.46303   -0.24635
H      4.84661   -1.56322    1.06517
H      1.77034   -0.26303    3.77589
H     -0.63305   -0.70816    3.14664
H     -5.81359    1.19790   -0.95880
H     -5.49113    2.67815   -0.04382
H     -5.65562    2.75190   -1.81598
H      0.01568    0.57449   -0.15336
