20

C      0.43524   -0.38154    1.03683
C      1.59979    0.02664    1.68258
C     -0.41330   -1.28557    1.68015
C      1.88955   -0.47947    2.96112
C      0.96643   -1.39623    3.54019
C      1.15432   -2.01259    4.90464
C      0.08078   -2.98638    5.35646
C      3.91795    0.77585    3.08009
N     -0.14809   -1.77258    2.89278
O      2.11354   -1.74870    5.61649
O      2.99388   -0.14207    3.66162
H      0.19038   -0.00335    0.04799
H      2.26867    0.72701    1.19625
H     -1.33153   -1.62741    1.20655
H     -0.01090   -3.81796    4.65190
H     -0.89777   -2.49842    5.38404
H      0.34822   -3.35581    6.34753
H      4.71184    0.89198    3.81786
H      3.44997    1.74968    2.89170
H      4.34097    0.38176    2.14808
