50

C      1.49486    0.63909   -2.26208
C     -1.96552    1.96592   -4.39174
C      0.64032   -1.43099    1.51201
C      0.60908    0.10294    1.55147
C      1.80827   -1.94300    0.65829
C      0.54295    0.69642    0.13504
C      1.76203   -1.36471   -0.76422
C     -3.04789   -0.87220   -4.03309
C     -3.33926   -1.07282   -5.53002
C     -0.96143   -0.18323   -2.52781
C      0.27863    0.90000   -4.34204
C     -1.47228    0.34494   -6.21665
C     -1.57633   -0.51010   -3.88679
C      1.67851    0.18875   -0.79120
C     -1.18897    0.69818   -4.75518
C      3.02100    0.77746   -0.31182
C     -3.30379   -0.08097   -7.73556
N      0.29927    0.48691   -2.91976
N     -2.90794    0.07380   -6.34135
O      2.44554    1.12835   -2.88510
O     -2.66788    2.14256   -3.41478
O     -1.73016    2.96325   -5.28549
H     -0.30533   -1.80001    1.08918
H      0.70748   -1.83641    2.52839
H     -0.26036    0.44773    2.12360
H      1.49298    0.47341    2.08324
H      2.75657   -1.68022    1.14136
H      1.78523   -3.03786    0.60185
H     -0.43465    0.44491   -0.27670
H      0.58434    1.79111    0.17978
H      2.64602   -1.67712   -1.33171
H      0.89902   -1.79968   -1.27885
H     -3.68160   -0.08131   -3.62702
H     -3.27841   -1.80034   -3.49728
H     -2.84420   -2.00364   -5.87448
H     -4.41478   -1.20705   -5.68340
H     -1.61077    0.48768   -1.96110
H     -0.77690   -1.08214   -1.93979
H      0.94372    0.26093   -4.93542
H      0.63391    1.92541   -4.44907
H     -1.21265    1.17024   -6.88306
H     -0.85348   -0.52808   -6.50188
H     -0.99138   -1.34660   -4.29692
H      3.22877    0.48896    0.72060
H      3.00359    1.86939   -0.36362
H      3.84407    0.43455   -0.94086
H     -3.02651    0.81551   -8.29865
H     -4.38986   -0.19993   -7.80038
H     -2.83328   -0.95531   -8.22402
H     -2.23537    3.73529   -4.96590
