22

C      2.09492   -0.70629   -0.02801
C      1.04910   -0.09022    0.65954
C      1.96894   -0.92250    2.75175
C      3.02662   -1.54052    2.06368
C      3.07303   -1.42571    0.66163
C      0.99913   -0.21390    2.04986
C      4.05871   -2.27648    2.84290
C      3.86493   -3.39736   -0.37632
N      3.64619   -2.88730    3.91136
N      5.37465   -2.20467    2.44576
O      4.75737   -3.51161    4.55593
O      4.09672   -2.01005   -0.07315
Br    -0.42496    0.63480    3.01553
H      2.16835   -0.63314   -1.10927
H      0.29281    0.47571    0.12579
H      1.93111   -1.00271    3.83167
H      4.72366   -3.73281   -0.96090
H      2.94827   -3.51099   -0.96623
H      3.78492   -3.99176    0.54115
H      5.53344   -2.01385    1.46413
H      5.99145   -2.87785    2.88426
H      4.33150   -3.96958    5.29699
