38

C      2.39696    2.64569    0.68381
C      1.18908    2.30131   -1.51645
C     -1.92542    0.53779   -1.18503
C      0.00410    0.32193    2.90648
C     -1.56400   -0.65556   -0.29062
C     -0.62894    0.78216    1.58884
C     -0.74662    0.92547   -2.07920
C     -0.13262   -1.19525    2.83071
C      0.84785    0.07422   -0.39507
C     -0.31224   -0.32424    0.54428
C      1.50242   -3.79726    1.73284
C      2.53259    2.47164   -0.76420
N      2.27576    2.77166    1.83370
N      0.45868    1.17716   -1.27465
N      0.19887   -1.44980    1.40944
O      0.86043    3.17283   -2.31885
O      0.38889   -3.05499   -0.54994
O     -1.12143   -3.69977    1.39223
S      0.09563   -3.04726    0.89019
H     -2.77963    0.27971   -1.81986
H     -2.22228    1.40374   -0.58329
H      1.05757    0.60879    2.94991
H     -0.49905    0.74045    3.78163
H     -2.39227   -0.91527    0.37629
H     -1.37091   -1.52333   -0.92528
H     -1.71377    0.86193    1.70787
H     -0.26230    1.75777    1.26904
H     -0.52625    0.10917   -2.78128
H     -0.95363    1.82534   -2.65583
H      0.56920   -1.71803    3.48528
H     -1.15016   -1.52946    3.06997
H      1.70505    0.34676    0.21678
H      1.12129   -0.79857   -0.99824
H      1.53957   -4.82839    1.37672
H      2.40481   -3.25590    1.45018
H      1.34258   -3.78179    2.81059
H      3.19742    1.62295   -0.95458
H      2.99347    3.36627   -1.18613
