27

C     -0.18587    2.95454   -1.38629
C      1.45453   -2.50793    0.91521
C      0.64969   -1.84280    1.84159
C      2.23089   -1.78663    0.00270
C      1.41244    0.29038    0.97318
C     -0.73313    1.68322   -1.06169
C      0.59921   -0.43974    1.85669
C      2.20790   -0.39020    0.05278
C     -1.15101    1.26648    0.17801
C     -1.35693   -0.35161   -1.27631
C     -0.32154    0.23437    2.79670
C     -1.63351   -1.75122   -1.68816
N      0.25993    4.00856   -1.60892
N     -0.88909    0.63484   -1.97528
N     -1.09283    1.25570    2.63482
N     -1.18997    1.89565    1.40859
O     -1.57445   -0.02943    0.04976
Cl     3.18024    0.53188   -1.07336
H      1.47865   -3.59413    0.89604
H      0.03436   -2.40931    2.53572
H      2.85133   -2.29453   -0.72873
H      1.43280    1.37351    1.00671
H     -0.38396   -0.18482    3.80087
H     -0.97175   -2.43671   -1.14781
H     -2.66754   -2.03150   -1.46573
H     -1.45378   -1.84591   -2.75934
H     -1.82052    2.68600    1.47376
