36

C     -4.65710    9.58781   -1.09754
C     -0.12705    1.79072   -1.50642
C     -0.97652    0.68808   -1.77089
C     -0.65909    3.00197   -1.11038
C     -2.34362    0.81353   -1.63068
C     -4.05547    4.40721   -0.42943
C     -3.87322    8.59811   -0.45864
C     -2.06354    3.16220   -0.96102
C     -2.68661    4.38411   -0.55734
C     -2.91952    2.04522   -1.22135
C     -4.82807    3.23812   -0.70485
C     -3.59368    8.42549    0.93656
C     -3.22358    7.53236   -1.09548
C     -6.32733    3.28738   -0.54759
C     -4.04979    9.29202    2.06677
C     -1.83970    5.61352   -0.28119
N     -5.30482   10.38949   -1.64863
N     -4.28124    2.10195   -1.09288
N     -2.84679    7.34867    1.13761
N     -2.60992    6.82658   -0.11665
N     -3.10141    7.20931   -2.43693
H      0.94853    1.68019   -1.61485
H     -0.54560   -0.25954   -2.08305
H      0.00925    3.83290   -0.90544
H     -3.01628   -0.01692   -1.82332
H     -4.56492    5.31041   -0.10658
H     -6.76254    4.07904   -1.16803
H     -6.76387    2.32949   -0.83380
H     -6.60056    3.50584    0.49119
H     -5.14213    9.36318    2.08973
H     -3.70166    8.87795    3.01506
H     -3.65915   10.30940    1.96015
H     -1.26381    5.48298    0.63829
H     -1.12860    5.77174   -1.09899
H     -3.67345    7.80026   -3.03250
H     -3.25501    6.22569   -2.64416
