39

C     -1.82364   -0.63358    1.69517
C     -2.62759    0.11074    0.83508
C      3.57266   -4.47497    2.65526
C     -0.50360   -0.91044    1.34730
C      4.27554   -3.34737    3.07929
C      2.31013   -3.13389    1.11983
C     -2.12528    0.60925   -0.37403
C      2.57848   -4.39236    1.67041
C      0.03301   -0.42310    0.15005
C     -0.77791    0.35106   -0.70255
C      4.00085   -2.09120    2.52652
C      3.00305   -1.99665    1.54133
C     -3.09349    1.40275   -1.21986
C      1.64195   -0.57700   -1.67637
C      1.11952    0.77327   -2.13239
C      1.79999   -5.61340    1.23709
N      1.36833   -0.74001   -0.24350
O     -4.25403    1.54736   -0.89093
O      2.14025    0.49153    1.89694
O      3.79233    0.02856    0.01224
O     -0.30201    0.84241   -1.90178
O      4.65848   -0.95659    2.89107
O     -2.63805    1.95966   -2.36406
S      2.65582   -0.37636    0.84335
H     -2.22394   -1.00700    2.63275
H     -3.66337    0.32745    1.07272
H      3.80717   -5.43890    3.10097
H      0.12424   -1.49609    2.00999
H      5.04678   -3.43940    3.84198
H      1.55185   -3.02672    0.35164
H      1.13615   -1.38428   -2.21715
H      2.71395   -0.64639   -1.85354
H      1.61567    1.58091   -1.58493
H      1.24593    0.92302   -3.20613
H      0.98052   -5.82626    1.93369
H      1.36075   -5.47507    0.24538
H      2.43886   -6.50096    1.20160
H      5.31317   -1.16112    3.57759
H     -1.68988    1.74540   -2.48242
