22

C      1.33450    1.17571    0.84355
C      0.52662    1.08833    2.02202
C      0.95001    2.21901    0.05498
C     -0.44976    2.05057    2.09846
C     -1.30206   -3.74719    0.49731
C     -0.85421   -1.97130    2.04438
C     -1.69011   -4.98617   -0.24617
N     -0.84578   -2.66783   -0.06737
N     -0.59807   -1.64346    0.81051
N     -0.65859   -1.09464    3.10877
O      0.73585    0.34625    4.58370
O      1.93321   -0.97515    2.75948
S     -0.40534    3.10726    0.71696
S     -1.43958   -3.61172    2.25237
S      0.80037   -0.18503    3.22602
Cl     1.63847    2.69535   -1.45446
Cl    -1.64390    2.26933    3.31392
H      2.13155    0.48010    0.61355
H     -1.11220   -5.85163    0.09261
H     -2.75214   -5.21377   -0.10928
H     -1.49706   -4.82483   -1.30837
H     -0.96720   -1.38391    4.03327
