25

C      1.66069   -1.86228    0.07006
C      0.54080   -1.41624    0.77016
C      2.95140   -1.50503    0.47062
C      2.01077   -0.22810    2.30280
C      0.71508   -0.58843    1.89258
C      3.12508   -0.68572    1.59248
C     -3.93957   -0.12035    6.40700
C     -2.79539   -0.07439    4.48235
C     -0.41920   -0.07340    2.66188
C     -2.63216   -0.80010    6.88188
N     -3.92136    0.23242    5.06382
N     -1.63536   -0.32600    2.31940
N     -2.62904    0.18274    3.15611
O     -4.86757    0.05426    7.17516
O      4.41155   -0.36585    1.94623
S     -1.51066   -0.86293    5.44660
H      1.53434   -2.50135   -0.79963
H     -0.46166   -1.69733    0.46665
H      3.82843   -1.85189   -0.06763
H      2.14375    0.40936    3.17638
H     -0.18640    0.55097    3.52928
H     -2.18520   -0.22024    7.69089
H     -2.85336   -1.80670    7.24093
H     -3.50714    0.33551    2.66967
H      4.39923    0.19927    2.73495
