40

C      0.58510    0.54060    1.72215
C     -0.02913    0.07983    0.53728
C      0.44571   -0.15405    2.92190
C     -0.79435   -1.08685    0.52656
C      2.71579   -4.99962    7.10865
C     -0.32199   -1.33270    2.94171
C     -0.67303   -2.28778    3.96097
C     -0.93137   -1.78223    1.73213
C      1.61116   -4.11309    6.94785
C     -1.45788   -3.24954    3.37250
C      3.70507   -4.21054    7.62401
C      0.25130   -4.55842    6.48950
C     -0.28056   -2.33200    5.41242
C     -2.04501   -4.42469    4.08729
C      6.16479   -3.41091    7.82810
C      5.69744   -3.74511    9.21789
C     -1.95952   -4.13711    5.59738
C      5.09175   -4.47511    8.02524
N      1.90101   -2.88724    7.34300
N     -1.61461   -2.95471    2.02471
N     -0.62606   -3.65042    5.96900
O     -0.03452   -5.75145    6.64492
O      3.23343   -2.94342    7.77244
H      1.17550    1.45259    1.69363
H      0.09704    0.64281   -0.38363
H      0.92350    0.21064    3.82808
H     -1.26375   -1.43932   -0.38894
H      2.73607   -6.05579    6.88595
H      0.78490   -2.15279    5.53616
H     -0.79661   -1.55357    5.99126
H     -3.09329   -4.58629    3.80600
H     -1.49797   -5.34720    3.85600
H      5.84406   -2.46684    7.40006
H      7.14455   -3.75416    7.51048
H      6.35289   -4.32045    9.86440
H      5.06204   -3.02619    9.72458
H     -2.68045   -3.35562    5.86213
H     -2.17231   -5.03192    6.17923
H      5.39062   -5.50771    7.87774
H     -2.15748   -3.49719    1.36831
