21

C      2.21955   -1.25436   -0.03867
C      3.15932   -1.46025    0.97732
C      0.90745   -0.88967    0.28255
C      2.79141   -1.29888    2.31679
C      0.53185   -0.72629    1.61963
C      1.47833   -0.92453    2.63461
C      1.62050    2.90119    5.32540
C      1.37137    0.98021    4.55030
N      1.19734    1.66195    5.67451
N      2.04542    3.06134    4.08248
N      1.87865    1.80908    3.59144
N      1.61609    4.02469    6.26439
O      1.20666    3.79403    7.40190
O      2.02184    5.10874    5.84115
S      0.99683   -0.72748    4.35681
H      2.50817   -1.38143   -1.07845
H      4.17730   -1.74826    0.73011
H      0.17506   -0.73417   -0.50470
H      3.51421   -1.45857    3.11147
H     -0.48493   -0.44508    1.87759
H      2.12175    1.59797    2.63013
