26

C      4.87697    2.95864    0.36289
C      6.07270    3.56874    0.75423
C      6.71488    1.56528    1.93932
C      4.58865    1.64061    0.74453
C      7.00136    2.87856    1.53686
C      5.53214    0.95405    1.53835
C      0.22211    1.35295   -1.43504
C      1.83318   -0.61004   -1.40021
C      2.48502    1.62173   -0.41060
C      1.34242    0.64243   -0.66323
O      3.46033    0.96769    0.41156
S      8.50604    3.69520    2.08772
Cl     5.19778   -0.69127    2.03565
H      4.17351    3.51674   -0.24366
H      6.28291    4.58768    0.44438
H      7.41219    1.01965    2.56637
H      0.57249    1.69237   -2.41744
H     -0.15600    2.22605   -0.89128
H     -0.61970    0.67386   -1.60267
H      2.22327   -0.34944   -2.39216
H      1.01295   -1.32182   -1.54112
H      2.62900   -1.10973   -0.84208
H      2.94746    1.92481   -1.36066
H      2.11875    2.52123    0.10168
H      0.95503    0.34024    0.31792
H      9.35144    3.10405    1.21327
