24

C      2.08103   -5.30780    1.51411
C      2.55362   -5.60682    2.79088
C      1.55973   -4.04354    1.24113
C      1.99472   -3.34121    3.56868
C      2.51233   -4.64160    3.79851
C      1.52000   -3.09173    2.25632
C      3.73493   -0.40604    9.47030
C      3.03141   -1.16869    7.52200
C      1.88806   -2.27923    4.57678
C      4.60476   -1.64465    9.47619
N      2.94742   -0.17639    8.48566
N      2.32619   -1.13974    6.44299
N      2.60672   -2.24124    5.64491
O      3.78857    0.45890   10.50111
S      4.20346   -2.49764    7.90986
Cl     3.09747   -5.14988    5.36602
Cl     0.86939   -1.51390    1.82519
H      2.11724   -6.06067    0.73208
H      2.95315   -6.58965    3.01706
H      1.19042   -3.79163    0.25289
H      1.17078   -1.48039    4.38565
H      5.66484   -1.37072    9.51934
H      4.37119   -2.27560   10.34099
H      4.42692    0.14545   11.16259
