25

C      0.32228   -1.86467   -3.22321
C      0.95903   -2.76498   -4.07953
C      0.27521   -1.41723   -5.98207
C     -0.34333   -0.74020   -3.71693
C     -0.36244   -0.55013   -5.10428
C      0.93679   -2.52743   -5.45428
C      2.87870    2.10236   -2.69396
C      2.20421    3.44817   -2.41818
C      0.72303    1.68146   -2.15671
C     -0.63231    1.47016   -2.81633
O      1.76614    1.26330   -3.01742
O      0.91133    3.07729   -1.91116
O     -1.00850    0.08303   -2.84090
F     -1.02693    0.51558   -5.61940
Cl     1.74599   -3.63968   -6.54572
H      0.33524   -2.01998   -2.14873
H      1.47322   -3.63421   -3.68328
H      0.23722   -1.22658   -7.04926
H      3.55966    2.10885   -3.54658
H      3.40168    1.72152   -1.80568
H      2.72445    4.04674   -1.66502
H      2.08148    4.03705   -3.33447
H      0.78013    1.13839   -1.19950
H     -0.62418    1.90772   -3.81702
H     -1.39462    1.96434   -2.21175
