27

C      0.28366    1.44326    1.95831
C     -0.10864    2.24421    3.04788
C     -0.18923    2.11648   -2.10205
C     -0.48856    3.50937   -2.11546
C     -1.65633   -0.02877    2.24675
C     -0.46859    0.32857    1.57206
C     -1.28438    1.89832    3.68619
C     -2.03885    0.79174    3.28879
C     -1.06221    1.40169   -1.31819
C     -1.58057    3.80167   -1.33348
C     -3.15126    1.84577    4.92180
N     -0.05391   -0.46784    0.45744
O     -0.12013   -0.94537   -2.00995
O     -2.31217   -0.79319   -0.67238
O     -1.87596    2.49527    4.77731
O     -3.12917    0.65485    4.11695
S     -2.27510    2.40168   -0.57397
S     -0.96129   -0.33705   -0.98161
Cl    -2.27491    5.36424   -1.08245
H      1.17858    1.70517    1.40010
H      0.47616    3.10236    3.36217
H      0.61783    1.64916   -2.65600
H      0.06030    4.25619   -2.67773
H     -2.23299   -0.89375    1.94139
H     -3.30134    1.57228    5.96815
H     -3.94234    2.51496    4.55835
H      0.93211   -0.36398    0.22304
