66

C     -1.76861   -3.73995   -2.12592
C     -5.95326   -8.63188    0.20791
C     -2.65463   -4.69691   -1.62754
C     -2.20739   -2.67055   -2.90882
C     -6.04691   -7.48619   -0.58288
C     -4.48334   -3.52858   -2.70487
C     -4.73800   -8.98075    0.79433
C     -4.03084   -4.60931   -1.92095
C     -3.57659   -2.58593   -3.17843
C     -3.62169   -8.14906    0.52139
C     -4.89464   -6.69986   -0.75136
C     -3.35693  -10.53179    2.06001
C     -0.40571   -7.59883    2.28498
C     -0.40886   -7.62395   -0.21842
C     -3.27569    0.59017   -2.28879
C     -5.55326   -0.24655   -1.95657
C      0.66090   -6.50110    2.19750
C      0.65670   -6.52590   -0.16513
C     -3.68731    1.85880   -1.54512
C     -5.86992    1.05579   -1.22384
C     -2.18568   -9.92347    1.29089
C     -1.29398   -7.53664    1.03596
C     -1.97155  -10.73039   -0.00662
C     -5.78797  -10.65706    2.30024
N     -3.71319   -7.03914   -0.22164
N     -4.59884  -10.05234    1.70578
N     -2.40772   -8.49114    1.07889
N     -4.47784    0.02453   -2.92510
N     -4.99469   -5.52634   -1.49736
O     -3.18696  -11.42420    2.88742
O     -3.13804   -0.67041   -4.94861
O     -5.52939   -1.53231   -4.61179
O      1.45109   -6.61651    1.01569
O     -4.71272    1.59489   -0.59021
S     -4.20926   -1.17374   -4.08891
H     -0.70958   -3.83866   -1.90158
H     -6.83926   -9.23429    0.37665
H     -2.30159   -5.51801   -1.02452
H     -1.51870   -1.94117   -3.32048
H     -6.99047   -7.20846   -1.04322
H     -5.53328   -3.43394   -2.96975
H      0.10383   -8.56522    2.36129
H     -1.00977   -7.46370    3.18926
H     -1.01747   -7.52049   -1.12232
H      0.09657   -8.59440   -0.25775
H     -2.54815    0.82995   -3.06613
H     -2.82962   -0.12527   -1.58153
H     -5.24687   -1.01574   -1.23113
H     -6.43422   -0.59326   -2.49974
H      0.18149   -5.50864    2.22767
H      1.35882   -6.56670    3.03576
H      1.35087   -6.60687   -1.00527
H      0.17720   -5.53352   -0.21184
H     -2.83788    2.25917   -0.98631
H     -4.02979    2.61320   -2.26840
H     -6.28487    1.78413   -1.93589
H     -6.60125    0.87345   -0.43248
H     -1.32187  -10.04703    1.94106
H     -1.77411   -6.55414    1.02845
H     -2.82108  -10.60656   -0.68516
H     -1.86877  -11.79276    0.23333
H     -1.06871  -10.40370   -0.52613
H     -6.35699  -11.22147    1.55301
H     -6.42918   -9.88127    2.72962
H     -5.45917  -11.33908    3.08244
H     -5.92502   -5.34390   -1.84930
