67

C     -0.01243    0.85810    2.02034
C      3.61812   -4.80447    4.01280
C      2.45518   -4.63149    3.25924
C     -0.45661   -2.21704   -0.01844
C     -0.09886   -0.52875    1.66595
C      1.43597   -3.49310    5.16464
C      0.09667   -1.52333    2.65410
C      3.71872   -4.33903    5.32503
C     -0.37861   -0.86604    0.32678
C      1.38208   -3.98365    3.85251
C      0.02849   -2.86001    2.27276
C     -0.24946   -3.22102    0.93624
C      2.62063   -3.67166    5.90696
C      0.15966   -2.92291    5.70759
C      0.40509   -1.11940    4.08008
C     -0.59522    0.20818   -0.71063
C     -0.69627   -8.67135   -1.91498
C     -2.17844   -6.75945   -2.63977
C      3.88990   -7.83219    8.03167
C      4.21163   -5.56224    9.08875
C      2.12531   -2.08604    7.69507
C     -0.61931   -6.50896   -0.62880
C      5.01633   -6.00826    6.71115
C     -0.61702   -4.98780   -0.64615
C      4.98890   -4.58867    6.11231
C     -0.82858   -7.14490   -2.01425
C      3.95159   -6.31890    7.77793
N      0.05985    1.99090    2.29006
O     -0.43310   -3.38731    6.65578
O      0.16174   -3.88932    3.18423
O     -0.36116   -1.83849    5.06568
O      6.08790   -4.42067    5.19537
O      2.80855   -3.23962    7.18834
O     -0.27708   -4.54916    0.67946
H      4.48180   -5.29532    3.57623
H      2.36067   -5.00864    2.24598
H     -0.67101   -2.48146   -1.04707
H      1.47529   -1.22624    4.28006
H      0.13948   -0.07343    4.23326
H     -1.44674    0.84410   -0.44712
H      0.27810    0.86365   -0.78932
H     -0.78590   -0.22887   -1.69343
H     -1.47629   -9.08867   -1.26692
H      0.27444   -8.96245   -1.49904
H     -0.79526   -9.14025   -2.89982
H     -3.00786   -7.04588   -1.98154
H     -2.32274   -7.27049   -3.59762
H     -2.25831   -5.68401   -2.82940
H      4.85265   -8.20880    8.39975
H      3.12987   -8.07357    8.78271
H      3.64342   -8.38055    7.11568
H      5.17602   -5.85737    9.52206
H      4.21757   -4.48012    8.93757
H      3.43349   -5.78711    9.82618
H      2.77071   -1.68443    8.47857
H      1.15372   -2.35542    8.11132
H      2.00003   -1.32809    6.91367
H      0.33888   -6.84326   -0.21468
H     -1.39830   -6.85378    0.06200
H      6.01067   -6.17395    7.15464
H      4.92288   -6.71375    5.87653
H      0.12504   -4.60723   -1.36133
H     -1.59925   -4.58433   -0.91649
H      5.06395   -3.84461    6.91101
H     -0.03027   -6.78120   -2.67735
H      2.97468   -6.00524    7.39118
H      6.89621   -4.68767    5.66082
