26   

C        0.3833039678   -0.4961922392   -0.3399102445
C        7.4795932338   -0.2461205551    4.7883798465
C        1.5796907046    0.1762210681   -0.0742130904
C       -0.1360163450   -1.3877797758    0.6027437207
C        6.9671840712   -0.6875817677    3.5650172598
C        6.6066199692    0.1751772315    5.7951814573
C        2.2544511525   -0.0445453987    1.1325675682
C        0.5399915903   -1.6030470670    1.8093931826
C        5.5836938185   -0.7062923639    3.3506195176
C        5.2240148551    0.1516903142    5.5779180794
C        1.7419217659   -0.9349446795    2.0873292042
C        4.6975707677   -0.2883288725    4.3541982531
C        2.4376097912   -1.1515483669    3.3572829463
C        3.2500796820   -0.3257621338    4.1367681764
H       -0.1412099259   -0.3255153127   -1.2732790128
H        8.5505397052   -0.2321589908    4.9566205559
H        1.9841281016    0.8712035247   -0.8012027094
H       -1.0637283927   -1.9110943781    0.4009163978
H        7.6406756077   -1.0184598625    2.7827030211
H        6.9997196284    0.5179699006    6.7455534140
H        3.1791360175    0.4840980051    1.3342568208
H        0.1262921519   -2.2926847273    2.5358900168
H        5.1929643728   -1.0546427531    2.4013223445
H        4.5553878443    0.4757382988    6.3668879748
H        2.3066476746   -2.1434000433    3.7732227412
H        2.6990363389    0.4356824757    4.6757303966
26   

C        0.6188707942   -0.5015165133   -0.3404999016
C        7.3975165498   -0.1895054424    4.5746701683
C        1.7690882743    0.1881652992    0.0528603410
C        0.0251729393   -1.4158945235    0.5336123802
C        6.7884945350   -0.6964064270    3.4233485180
C        6.6082199466    0.2577201320    5.6375130593
C        2.3232883770   -0.0374937032    1.3185693883
C        0.5818236479   -1.6381900929    1.7985295282
C        5.3923793786   -0.7551583113    3.3367902745
C        5.2127107865    0.1966361098    5.5474700126
C        1.7370586981   -0.9534901319    2.2057626523
C        4.5882051539   -0.3088178810    4.3969351591
C        2.3031591079   -1.1803296901    3.5392687423
C        3.1259291432   -0.3847065777    4.3186123963
H        0.1871561031   -0.3260669747   -1.3194027653
H        8.4785600515   -0.1456017841    4.6441480191
H        2.2308846262    0.9011334265   -0.6205783754
H       -0.8682577500   -1.9515215891    0.2334189817
H        7.3969234896   -1.0478702272    2.5978875687
H        7.0764204844    0.6497335651    6.5332505007
H        3.2107832784    0.5088608893    1.6166315328
H        0.1097524867   -2.3460897881    2.4697126867
H        4.9305453271   -1.1577489842    2.4425737533
H        4.6110418005    0.5418455687    6.3801079130
H        2.0528612639   -2.1338162625    3.9888981361
H        2.5945401944    0.3047258138    4.9637954450
26   

C        0.8385567649   -0.4905489826   -0.3317120011
C        7.3150127261   -0.1537945341    4.3740005685
C        1.9048633533    0.2505753686    0.1844741685
C        0.2188672359   -1.4590696404    0.4619495431
C        6.6349295573   -0.7647946643    3.3171716312
C        6.5960394123    0.3626714235    5.4548748795
C        2.3487894649    0.0231326346    1.4925576551
C        0.6668152929   -1.6852765950    1.7685992062
C        5.2384111333   -0.8593345847    3.3431982031
C        5.1996894327    0.2683144247    5.4764617354
C        1.7372670033   -0.9493023998    2.3005710355
C        4.5026497956   -0.3418679163    4.4217904282
C        2.1831580841   -1.1832362847    3.6795195389
C        3.0394918692   -0.4517754391    4.4675231481
H        0.4915190470   -0.3129011117   -1.3433456260
H        8.3967250973   -0.0831160236    4.3567206420
H        2.3869847000    1.0051761116   -0.4264515167
H       -0.6110307925   -2.0339102822    0.0669172535
H        7.1885682533   -1.1696255346    2.4777132819
H        7.1196663256    0.8343185617    6.2786384574
H        3.1710611297    0.6117982276    1.8829095573
H        0.1740063678   -2.4363338625    2.3747523979
H        4.7247517206   -1.3440090284    2.5208363329
H        4.6549102389    0.6689947073    6.3232445680
H        1.7952869388   -2.0787861396    4.1502390333
H        2.5496040189    0.1470586099    5.2260995491
26   

C        1.0328927191   -0.4710536112   -0.3081002125
C        7.2298948881   -0.1366154029    4.1972983673
C        2.0003315120    0.3252936158    0.3101970026
C        0.4133868471   -1.4945831172    0.4131417797
C        6.5034134368   -0.8516183961    3.2415812027
C        6.5648308449    0.4529742755    5.2751038733
C        2.3446431504    0.0990452156    1.6481111468
C        0.7635485603   -1.7210735990    1.7492402334
C        5.1148194742   -0.9781927909    3.3662323183
C        5.1757917932    0.3284680765    5.3940014374
C        1.7331473021   -0.9291370042    2.3847261861
C        4.4319337776   -0.3872667625    4.4424104714
C        2.0722477920   -1.1659128237    3.7954234415
C        2.9765767456   -0.5276293742    4.5951040238
H        0.7622565080   -0.2938919951   -1.3428690789
H        8.3058560795   -0.0416883760    4.1041720974
H        2.4831932615    1.1215644107   -0.2446549905
H       -0.3408160582   -2.1122177916   -0.0611052292
H        7.0148008930   -1.3120209676    2.4039803205
H        7.1248092937    1.0050408070    6.0213286260
H        3.0915368955    0.7301770772    2.1160048338
H        0.2718475974   -2.5162613194    2.2971497558
H        4.5661439818   -1.5424020728    2.6207612413
H        4.6740523729    0.7880640030    6.2374044100
H        1.5340856811   -1.9731594938    4.2780455080
H        2.5479039129   -0.0470467413    5.4665796498
26   

C        1.2068015752   -0.4515408723   -0.2812607006
C        7.1495648906   -0.1240911565    4.0397073243
C        2.0738100922    0.3953595704    0.4141217237
C        0.6005091471   -1.5203117818    0.3834830871
C        6.3996643785   -0.9324679623    3.1813943905
C        6.5209116361    0.5277706594    5.1034879390
C        2.3297730091    0.1750333859    1.7726436754
C        0.8642034147   -1.7415921213    1.7401735842
C        5.0245680144   -1.0909576103    3.3902807472
C        5.1445792468    0.3723974689    5.3051305736
C        1.7308564102   -0.8981437000    2.4529201201
C        4.3782722717   -0.4382306034    4.4529855975
C        1.9778081076   -1.1317102303    3.8850696819
C        2.9363932139   -0.6092100946    4.6942701585
H        1.0040167807   -0.2789259282   -1.3321816826
H        8.2154548731   -0.0045330698    3.8818015769
H        2.5476344104    1.2256226274   -0.0969287621
H       -0.0762441344   -2.1773561223   -0.1508089528
H        6.8821696364   -1.4398715996    2.3539001059
H        7.0993902597    1.1524435231    5.7745448768
H        3.0004744816    0.8432302065    2.3006852608
H        0.3852906659   -2.5729423774    2.2439447912
H        4.4562156943   -1.7252618991    2.7196072022
H        4.6702285142    0.8819540192    6.1355725087
H        1.2931177059   -1.8162648958    4.3719506795
H        2.5824949463   -0.2754343334    5.6626804840
26   

C        1.3461345618   -0.4384851587   -0.2495895942
C        7.0740490600   -0.1158235918    3.9182128053
C        2.1328465165    0.4459877813    0.4931657706
C        0.7477974162   -1.5319680879    0.3817049511
C        6.3168453607   -0.9902655939    3.1340655862
C        6.4680626076    0.5706322273    4.9735826528
C        2.3157799566    0.2385410753    1.8654034136
C        0.9398475795   -1.7404158897    1.7524307415
C        4.9575528645   -1.1803353844    3.4092628502
C        5.1067385350    0.3839567218    5.2403704163
C        1.7244372075   -0.8588764594    2.5116147502
C        4.3346705475   -0.4932925287    4.4635820812
C        1.8974717575   -1.0806789140    3.9581562965
C        2.9080072388   -0.6951200967    4.7726542423
H        1.1997524042   -0.2761540767   -1.3114494274
H        8.1279750452    0.0285259950    3.7090978077
H        2.6014753935    1.2946252820    0.0082163355
H        0.1331775212   -2.2182596956   -0.1895915124
H        6.7811046310   -1.5236120761    2.3124940057
H        7.0524827346    1.2466738756    5.5872225657
H        2.9258400793    0.9328403990    2.4319794138
H        0.4697855398   -2.5911990170    2.2315210576
H        4.3807829606   -1.8633341149    2.7960065730
H        4.6478443337    0.9207811445    6.0622911305
H        1.0887644429   -1.6131561239    4.4451971726
H        2.6302705850   -0.5297231141    5.8071852636
26   

C        1.4393339988   -0.4382097660   -0.2215058502
C        7.0156585104   -0.1044845693    3.8408912429
C        2.1859841582    0.4663676404    0.5384853612
C        0.8297832527   -1.5303691732    0.4016971163
C        6.2607338112   -1.0116299725    3.0922282678
C        6.4218182729    0.5809607808    4.9040263737
C        2.3175857766    0.2800530064    1.9195927378
C        0.9711128482   -1.7174946203    1.7816692369
C        4.9160754634   -1.2350760113    3.4107387736
C        5.0745966606    0.3607878084    5.2135928652
C        1.7150086333   -0.8157118196    2.5569122643
C        4.3061037898   -0.5490437492    4.4725014654
C        1.8378587037   -1.0165489958    4.0133602846
C        2.8927851185   -0.7840488366    4.8243794472
H        1.3329699180   -0.2926922066   -1.2905330440
H        8.0583396502    0.0662581235    3.5980543945
H        2.6638527231    1.3135070601    0.0600076978
H        0.2462861262   -2.2322516883   -0.1831123614
H        6.7150985804   -1.5437056525    2.2643441195
H        7.0045974557    1.2823952592    5.4900868868
H        2.8980999814    0.9870443154    2.5013988145
H        0.4942971509   -2.5671568011    2.2560909745
H        4.3382873595   -1.9410553385    2.8250070314
H        4.6230071826    0.8966595334    6.0401905382
H        0.9402795098   -1.3733734863    4.5052071247
H        2.6796396722   -0.8025412716    5.8869772327
26   

C        1.5728312498   -0.9307093825   -0.2463393323
C        6.8838790090    0.3878013249    3.8644227849
C        2.6635596671   -1.5469930537    0.3735516691
C        0.5696849240   -0.3483932606    0.5331938718
C        5.8028873979    1.0080924823    3.2316043441
C        6.6520387224   -0.6118402440    4.8131290496
C        2.7467281712   -1.5836656139    1.7704501713
C        0.6614138516   -0.3801435690    1.9295562466
C        4.4933091265    0.6310422158    3.5516466456
C        5.3410312366   -0.9913749023    5.1237315088
C        1.7490723865   -0.9973971806    2.5639639447
C        4.2476890361   -0.3753097701    4.4980020711
C        1.8227902458   -1.0366415978    4.0384166303
C        2.8700834146   -0.7758785342    4.8486826206
H        1.5050641911   -0.9048687895   -1.3280235100
H        7.8985643959    0.6813801966    3.6204401870
H        3.4464208188   -1.9971057813   -0.2259944399
H       -0.2800679410    0.1272243127    0.0569384826
H        5.9767432423    1.7814961553    2.4923136625
H        7.4871333062   -1.0929828073    5.3093451376
H        3.5959855585   -2.0626063478    2.2446311790
H       -0.1205893597    0.0737020888    2.5269615403
H        3.6595237555    1.1157113289    3.0562974742
H        5.1696333555   -1.7674029068    5.8604819121
H        0.9145576658   -1.3604728869    4.5335066492
H        2.6656304964   -0.8274324003    5.9118888880
26   

C        1.5457716932   -0.9758574573   -0.2497047122
C        6.8859790864    0.4252692630    3.9017864365
C        2.6288983293   -1.5909783222    0.3841681355
C        0.5563231456   -0.3532205682    0.5158391844
C        5.7948196633    1.0376763708    3.2791634371
C        6.6715021141   -0.6040712487    4.8222198495
C        2.7180498512   -1.5865767689    1.7811350875
C        0.6539231678   -0.3438226947    1.9121517453
C        4.4923135263    0.6233876227    3.5813795234
C        5.3677366999   -1.0209304247    5.1150214138
C        1.7339073855   -0.9599924314    2.5614257367
C        4.2634130491   -0.4129854050    4.4998263612
C        1.8115432713   -0.9581208593    4.0346693904
C        2.8948944021   -0.8509440591    4.8343568308
H        1.4732276312   -0.9823248871   -1.3313706204
H        7.8950592785    0.7481132731    3.6719250924
H        3.4011344459   -2.0725818688   -0.2046043044
H       -0.2877059281    0.1215449341    0.0286824000
H        5.9552335051    1.8343433280    2.5618539787
H        7.5146022313   -1.0791488035    5.3106799403
H        3.5614014722   -2.0667261550    2.2644009408
H       -0.1185628650    0.1411031258    2.4973604555
H        3.6518188275    1.1045111037    3.0941228298
H        5.2113912900   -1.8196283139    5.8305587211
H        0.8649679126   -1.0930376031    4.5452369822
H        2.7310805228   -1.0910821253    5.8785720966
26   

C        1.4641814347   -1.0142697405   -0.2837708150
C        6.9374414743    0.4534228412    3.9785082062
C        2.5749910094   -1.5904559453    0.3383259325
C        0.4839484746   -0.3872369095    0.4896776329
C        5.8558821907    1.0394791627    3.3154392264
C        6.7135082237   -0.5803462177    4.8914296417
C        2.7012280921   -1.5430060700    1.7316468534
C        0.6179752900   -0.3348316879    1.8819840521
C        4.5531869887    0.5946426762    3.5696760107
C        5.4101016689   -1.0277476239    5.1367679924
C        1.7261975095   -0.9118627249    2.5206768110
C        4.3141467351   -0.4465830274    4.4808867565
C        1.8400553175   -0.8673681310    3.9892302367
C        2.9466124208   -0.9145482240    4.7680329607
H        1.3628846962   -1.0546223240   -1.3623976375
H        7.9463646491    0.8003554799    3.7860586197
H        3.3397821549   -2.0760717327   -0.2568603560
H       -0.3815790795    0.0573053227    0.0117893501
H        6.0238578148    1.8401588593    2.6043336929
H        7.5490440479   -1.0350115753    5.4113258723
H        3.5658350391   -1.9958573011    2.2034672150
H       -0.1492103642    0.1530260945    2.4716777955
H        3.7216743770    1.0586647582    3.0515012414
H        5.2484559254   -1.8293403795    5.8478503293
H        0.8998579186   -0.8077964818    4.5251671597
H        2.8003200693   -1.3411039380    5.7536277679
26   

C        1.3353406527   -1.0518154790   -0.3281296599
C        7.0146685560    0.4737159393    4.0951117185
C        2.5027543964   -1.5521134357    0.2544158407
C        0.3594134433   -0.4573234184    0.4755400801
C        5.9659891797    1.0139538215    3.3461608061
C        6.7546086210   -0.5381976136    5.0225484778
C        2.6905237032   -1.4610541623    1.6386498475
C        0.5537341570   -0.3618412491    1.8583677344
C        4.6596647874    0.5449745246    3.5284497039
C        5.4482470228   -1.0093999674    5.1971238952
C        1.7200029053   -0.8619255243    2.4585782658
C        4.3839256918   -0.4750470931    4.4540162597
C        1.8966032722   -0.7745877339    3.9171624202
C        3.0129778578   -0.9659107416    4.6681191572
H        1.1866513332   -1.1262386208   -1.3994391877
H        8.0259899992    0.8395933231    3.9583131366
H        3.2636286149   -2.0136142803   -0.3645394303
H       -0.5498492187   -0.0717664474    0.0285958880
H        6.1622404111    1.7986981088    2.6245793189
H        7.5643113201   -0.9572552367    5.6090159924
H        3.5986980072   -1.8582496878    2.0775297391
H       -0.2125250329    0.0995679296    2.4701165656
H        3.8551304939    0.9770538555    2.9443324454
H        5.2604217737   -1.7930225696    5.9216555512
H        1.0051594424   -0.5265173499    4.4813071176
H        2.8654530600   -1.5650338230    5.5590502071
26   

C        1.1705971634   -1.1054256493   -0.3562461796
C        7.0866222560    0.4958545790    4.2538874898
C        2.4041528418   -1.5069926211    0.1628707227
C        0.2036480549   -0.5642600398    0.4944814782
C        6.0941625987    0.9789246581    3.3971101473
C        6.7689515601   -0.4793177906    5.2024205712
C        2.6678130333   -1.3694964154    1.5308387017
C        0.4724482456   -0.4237994468    1.8608967364
C        4.7863078771    0.4886998652    3.4916791522
C        5.4613646024   -0.9706815775    5.2909686984
C        1.7067090900   -0.8232035636    2.3977480255
C        4.4529880106   -0.4949113128    4.4377719916
C        1.9637533199   -0.6898890550    3.8390264198
C        3.0798227715   -1.0052612112    4.5598578193
H        0.9636584892   -1.2155393127   -1.4147495629
H        8.0988177906    0.8779841023    4.1845194418
H        3.1574450136   -1.9286006990   -0.4927671200
H       -0.7564067882   -0.2552725091    0.0969555723
H        6.3351575990    1.7364491030    2.6601294251
H        7.5346716293   -0.8540001258    5.8721148334
H        3.6266908903   -1.6926383529    1.9197264376
H       -0.2886500411   -0.0057943486    2.5092008955
H        4.0257523958    0.8788785389    2.8250303008
H        5.2289765993   -1.7243342886    6.0341403022
H        1.1532287643   -0.2702575596    4.4231062119
H        2.9235216945   -1.7514349411    5.3299129068
26   

C        0.9809275941   -1.1725711013   -0.3759346325
C        7.1560023718    0.5224900493    4.4418828890
C        2.2774814522   -1.4660034250    0.0548568453
C        0.0390164249   -0.6919724359    0.5371777974
C        6.2457263466    0.9463784950    3.4700521817
C        6.7594514020   -0.4102855423    5.4034567992
C        2.6295997159   -1.2796631835    1.3969407091
C        0.3952489574   -0.5048362954    1.8777863385
C        4.9412561870    0.4382620764    3.4618461800
C        5.4550614673   -0.9177805596    5.3908537794
C        1.6939252956   -0.7944049628    2.3251050306
C        4.5298448684   -0.5020856776    4.4204565529
C        2.0476176613   -0.6125260341    3.7387183635
C        3.1587492670   -1.0277267593    4.4319140340
H        0.7059692369   -1.3198159684   -1.4142574047
H        8.1654359498    0.9178963881    4.4514886815
H        3.0109720992   -1.8419019085   -0.6492634998
H       -0.9690134469   -0.4663924394    0.2082197386
H        6.5478454732    1.6721392146    2.7236688531
H        7.4611634007   -0.7393192234    6.1614544978
H        3.6363702827   -1.5200486315    1.7189043307
H       -0.3465989390   -0.1358765131    2.5762833451
H        4.2430962540    0.7828721618    2.7076232064
H        5.1594533449   -1.6372253232    6.1454302743
H        1.3350793328   -0.0493300906    4.3295907006
H        2.9935739646   -1.8874532570    5.0703639698
26   

C        0.7808891931   -1.2475595567   -0.3984114151
C        7.2293395198    0.5545270597    4.6409302034
C        2.1272592356   -1.4426590918   -0.0780679714
C       -0.1112048249   -0.8160328181    0.5867784160
C        6.4239239368    0.9324906616    3.5630404600
C        6.7388228537   -0.3441559528    5.5919334824
C        2.5789636563   -1.2060648577    1.2257947443
C        0.3441000974   -0.5813309697    1.8894328730
C        5.1304493515    0.4115666753    3.4379841898
C        5.4447750747   -0.8621651659    5.4638473529
C        1.6934085966   -0.7720619192    2.2244121727
C        4.6259597156   -0.4921036902    4.3859685320
C        2.1578759491   -0.5400479043    3.5956709670
C        3.2656144878   -1.0267294776    4.2692673555
H        0.4291234832   -1.4326486724   -1.4070804101
H        8.2303323551    0.9589094039    4.7404265861
H        2.8221151551   -1.7808623394   -0.8382608395
H       -1.1567674688   -0.6653675993    0.3432025890
H        6.7989973093    1.6322008514    2.8249179250
H        7.3593726486   -0.6384919199    6.4306916647
H        3.6235959131   -1.3683547251    1.4653951303
H       -0.3580177892   -0.2515944769    2.6462447729
H        4.5112920595    0.7176824395    2.6025558109
H        5.0734638036   -1.5545934248    6.2102591863
H        1.5455427016    0.1363451377    4.1800456893
H        3.0960898481   -1.9672396173    4.7798117097
26   

C        0.5719529052   -1.3506190348   -0.4057441976
C        7.2868508865    0.6066135432    4.8608831968
C        1.9481345980   -1.4925088479   -0.2056153915
C       -0.2412874560   -0.9173418453    0.6450340060
C        6.5921078656    0.9787319116    3.7063595902
C        6.7095090956   -0.2965034374    5.7576993079
C        2.5082548130   -1.2004368987    1.0439069073
C        0.3222668826   -0.6296488982    1.8936291752
C        5.3224193658    0.4469063800    3.4506270779
C        5.4385040763   -0.8232342101    5.4999322155
C        1.7020788707   -0.7673012048    2.1067256792
C        4.7316146768   -0.4582310334    4.3443728015
C        2.2851939880   -0.4799935910    3.4189424652
C        3.3957663806   -0.9998907843    4.0864675477
H        0.1363201229   -1.5775613124   -1.3722561515
H        8.2695674813    1.0184083356    5.0611724532
H        2.5819896992   -1.8315920939   -1.0169952018
H       -1.3090752944   -0.8062487379    0.4942752286
H        7.0348612668    1.6815709665    3.0098881546
H        7.2446620655   -0.5875520386    6.6544395289
H        3.5755388082   -1.3175040305    1.1935356075
H       -0.3177577924   -0.2991163504    2.7033555496
H        4.7871521615    0.7437169052    2.5558738585
H        4.9975318168   -1.5190052617    6.2041964864
H        1.7641116383    0.2862178852    3.9804693749
H        3.2349702081   -1.9964984347    4.4799612187
