27

C     -2.37773    1.62903   -1.49632
C     -2.04906    2.63859   -0.58284
C     -1.61301    0.46266   -1.55697
C     -0.96362    2.49325    0.28706
C     -0.52663    0.32769   -0.69279
C     -0.20691    1.32798    0.23200
C      1.20411   -1.06745    0.21857
C      1.15389   -0.17226    1.44577
C      0.12128   -0.71129    2.44394
C      0.03214    0.15132    3.70271
N      0.33662   -0.80804   -0.74371
N      2.07099   -2.07434    0.16233
O      0.90452    1.17266    1.03540
O     -0.87596   -0.52259    4.56346
H     -3.22670    1.74908   -2.16120
H     -2.64555    3.54466   -0.54224
H     -1.85742   -0.32492   -2.26584
H     -0.69504    3.26778    0.99857
H      2.14736   -0.14235    1.90097
H      0.40548   -1.72816    2.73816
H     -0.86773   -0.77237    1.97905
H      1.02758    0.24846    4.16257
H     -0.32227    1.15762    3.44538
H      0.29888   -1.38990   -1.57788
H      2.11414   -2.72769   -0.61428
H      2.71565   -2.23369    0.92852
H     -1.01901    0.01396    5.35927
