26

C     -1.65927    2.49763   -0.43635
C     -0.38226    2.94667   -0.07906
C     -1.89950    1.12951   -0.58935
C      0.65033    2.02815    0.14295
C     -0.87602    0.19682   -0.37715
C      0.39337    0.66589    0.00773
C     -0.20099   -1.99381   -0.18544
C      1.04830   -1.56530    0.57176
C      0.91642   -1.72503    2.09811
C     -0.30160   -1.06958    2.76479
N     -1.11927   -1.17450   -0.57662
N     -0.30822   -3.33671   -0.45810
O      1.42302   -0.22585    0.21428
O     -1.52917   -1.75102    2.49462
H     -2.46202    3.21034   -0.60314
H     -0.18717    4.00971    0.03305
H     -2.87640    0.75784   -0.88647
H      1.64766    2.35153    0.42781
H      1.88881   -2.17898    0.23425
H      1.83115   -1.30653    2.53496
H      0.90433   -2.79458    2.34373
H     -0.16762   -1.12338    3.84911
H     -0.37150   -0.00905    2.49748
H     -1.23019   -3.62809   -0.76663
H      0.13885   -3.97822    0.18573
H     -1.85278   -1.47083    1.62291
