34

C      9.46984   -2.10434   -0.80352
C      7.81187   -0.79897    0.22039
C     10.53809   -3.08414   -1.18906
C      0.04823   -0.84951    0.58244
C     11.37993   -5.01970   -3.70717
C      1.31695   -0.28781    1.23306
C      2.59840   -0.72760    0.51462
C      3.86871   -0.17140    1.17225
C     12.01427   -3.80331   -3.02569
C      5.12824   -0.62415    0.43868
N      8.98912   -1.18949   -1.60927
N      8.02663   -0.42146   -1.01044
N     11.02424   -2.90227   -2.44043
O     10.90910   -3.95025   -0.39542
O      6.71474   -0.75031    2.63737
S      8.77822   -2.12689    0.79185
S      6.62017    0.01141    1.33003
H     -0.04127   -0.52083   -0.45941
H      0.05469   -1.94553    0.58495
H     -0.85061   -0.52037    1.11427
H     10.80469   -5.60346   -2.98336
H     10.71110   -4.71452   -4.51877
H     12.15800   -5.66478   -4.12917
H      1.36459   -0.60634    2.28220
H      1.26824    0.80874    1.24725
H      2.55600   -0.40712   -0.53509
H      2.64830   -1.82453    0.50059
H      3.92074   -0.50569    2.21420
H      3.82434    0.92499    1.18815
H     12.61007   -3.22413   -3.73756
H     12.67629   -4.12560   -2.21911
H      5.18993   -0.23386   -0.58200
H      5.22148   -1.71445    0.42229
H     10.58355   -2.18546   -3.00686
