43

C      5.12441   -3.00037   -3.77554
C      4.17716   -2.30565   -4.53717
C      4.90632   -3.23237   -2.41284
C      3.00835   -1.83140   -3.93684
C      3.74125   -2.76240   -1.80014
C     -1.08905   -0.09083    1.98482
C      0.91478    0.42826    1.61919
C      2.81253   -2.06188   -2.57292
C      0.34264    5.01285   -0.76428
C     -1.48990    3.30837   -1.06229
C     -0.29010    3.53991    1.13932
C      1.82332    0.26325   -1.33305
C      0.62453    1.07608   -0.83023
C      0.96365    2.59551   -0.88882
C     -0.13000    3.58999   -0.39452
N      0.13112   -0.00744    2.59469
N     -1.10168    0.27128    0.70720
N      0.20035    0.60624    0.48236
O      0.27684   -1.29696   -2.81185
O      1.09489   -2.20216   -0.55319
O      1.36350    2.87185   -2.23837
S      1.32437   -1.43227   -1.78460
H      6.03065   -3.37000   -4.24790
H      4.34407   -2.14134   -5.59806
H      5.63726   -3.78540   -1.82957
H      2.24804   -1.31245   -4.51284
H      3.53726   -2.95132   -0.75046
H     -1.98522   -0.42987    2.48756
H      1.97635    0.62136    1.69635
H      1.32068    5.23107   -0.32053
H      0.43240    5.15404   -1.84370
H     -0.37151    5.74885   -0.38097
H     -1.90248    2.34246   -0.75961
H     -1.42948    3.33103   -2.15877
H     -2.20986    4.08198   -0.77614
H     -0.78977    2.63709    1.48834
H      0.67919    3.61833    1.64443
H     -0.89689    4.39118    1.46577
H      2.21784    0.72096   -2.24035
H      2.61998    0.17869   -0.59069
H     -0.22411    0.88655   -1.49079
H      1.86889    2.77462   -0.29694
H      0.56629    2.87265   -2.79344
