16   

C        0.5835515385    0.8867080576    1.7731426185
C        0.3344227920    0.9003466532    3.1258239434
C       -0.2610899548    0.1632365468    0.9623553317
C       -4.2782748098   -1.9971487306    4.4797682659
C       -4.3309949103   -2.6059271237    3.2689055428
C       -1.4934568340   -0.4679937987    2.7986909337
C       -2.6556103790   -1.2100371894    3.3143732217
N       -0.6923722058    0.2317361775    3.6338205642
N       -1.2902884055   -0.5056209028    1.4705701510
N       -3.2196027328   -1.1199490757    4.4892672797
O       -3.3168758853   -2.1251974834    2.5131273373
H        1.4201570964    1.4312826144    1.3593063872
H        0.9823940589    1.4630466883    3.7882219365
H       -0.0863616168    0.1381453412   -0.1071898606
H       -4.9602504249   -2.1724510355    5.3035659928
H       -5.0579924917   -3.3470939998    2.9599859629
16   

C        0.5779180906    0.8955943268    1.7741232493
C        0.3873344466    0.8314932361    3.1350278179
C       -0.3155488604    0.2382514991    0.9590641555
C       -4.3332508773   -1.9259417985    4.4425668573
C       -4.2549108436   -2.6873710700    3.3224319970
C       -1.4777479449   -0.4832503314    2.8063988359
C       -2.6427222414   -1.2214117697    3.3261236023
N       -0.6297684443    0.1509947840    3.6470005463
N       -1.3356500983   -0.4417875513    1.4708379040
N       -3.3131256816   -1.0040693353    4.4248001171
O       -3.1949248024   -2.2602670296    2.5977555188
H        1.4065820835    1.4499074881    1.3572463289
H        1.0740240210    1.3420881444    3.8006262275
H       -0.1878172502    0.2761336075   -0.1167326532
H       -5.0801138255   -2.0258821434    5.2214632320
H       -4.9244243192   -3.4954078043    3.0538792772
16   

C        0.5647687670    0.8994441850    1.7805777774
C        0.4333157030    0.7555737417    3.1426661851
C       -0.3807426699    0.3146730090    0.9684843703
C       -4.3980520562   -1.8609431012    4.3988921512
C       -4.1905880825   -2.7575066744    3.4013708311
C       -1.4752862876   -0.4932138506    2.8191821012
C       -2.6448301174   -1.2267187641    3.3449546727
N       -0.5769341146    0.0677196833    3.6588297718
N       -1.3944189507   -0.3722256736    1.4839204559
N       -3.4176458492   -0.8981300261    4.3419975164
O       -3.0873227419   -2.3761337607    2.7165363960
H        1.3877661466    1.4598355820    1.3605997742
H        1.1615773759    1.2087450728    3.8056440155
H       -0.3000948518    0.4168542602   -0.1076892491
H       -5.2073425342   -1.8956461674    5.1188408974
H       -4.8021110613   -3.6259425411    3.1888633315
16   

C        0.5594650448    0.9070982963    1.7764771082
C        0.4816102020    0.6759730243    3.1309739326
C       -0.4402787841    0.4096338041    0.9706463919
C       -4.4684583018   -1.7987537229    4.3146726590
C       -4.1283434728   -2.8073854507    3.4721017508
C       -1.4813653195   -0.4822925105    2.8107191904
C       -2.6595605159   -1.2108311084    3.3375966994
N       -0.5296246689   -0.0116067298    3.6461540742
N       -1.4549736009   -0.2768829486    1.4846615471
N       -3.5330299148   -0.7959078995    4.2082981269
O       -2.9854682663   -2.4569188312    2.8372752242
H        1.3830949289    1.4673940747    1.3575985218
H        1.2535541807    1.0593094267    3.7885635826
H       -0.4019110601    0.5813976903   -0.0989927337
H       -5.3383022572   -1.7842250305    4.9609318493
H       -4.6767410122   -3.7307453283    3.3307589773
16   

C        0.5685563314    0.9025001414    1.7832557989
C        0.5310331083    0.5741633550    3.1194804759
C       -0.4846034994    0.5138854696    0.9852721586
C       -4.5417946874   -1.7494437367    4.2169403309
C       -4.0634082397   -2.8438111129    3.5711420297
C       -1.4997784989   -0.4566916257    2.7973529361
C       -2.6907725131   -1.1803801207    3.3168223428
N       -0.4935822880   -0.1009155788    3.6252187980
N       -1.5121980661   -0.1604925895    1.4896705408
N       -3.6616811886   -0.7073330203    4.0382544482
O       -2.8887191105   -2.5072591504    2.9888989876
H        1.4028509768    1.4527432000    1.3722172782
H        1.3464469344    0.8692120776    3.7701075865
H       -0.4776298808    0.7619198295   -0.0699719706
H       -5.4679771649   -1.7039646967    4.7778468249
H       -4.5391881013   -3.8159729030    3.5280205186
16   

C        0.5729517141    0.8983401741    1.7921319133
C        0.5548585153    0.4512955856    3.0937147554
C       -0.5247832630    0.6455570779    0.9998023633
C       -4.6327492273   -1.7127985279    4.0829997847
C       -4.0183436498   -2.8520994190    3.6729579111
C       -1.5489509433   -0.4156586591    2.7548189642
C       -2.7533230178   -1.1393395868    3.2498830875
N       -0.4948981778   -0.2045094098    3.5727949970
N       -1.5764881397   -0.0104606281    1.4779384327
N       -3.8145575981   -0.6419060840    3.8064434467
O       -2.8208266131   -2.5140991941    3.1401745316
H        1.4273668780    1.4331912571    1.4026796061
H        1.4067678248    0.6348611037    3.7385585113
H       -0.5328126311    0.9856001486   -0.0294764797
H       -5.6083506499   -1.6570309181    4.5516091299
H       -4.4165949476   -3.8558934112    3.7573837743
16   

C        0.5783793858    0.9009191600    1.7988102296
C        0.5801016383    0.3316452191    3.0516642138
C       -0.5534021118    0.7716515775    1.0251026597
C       -4.6897685982   -1.7238207565    3.9343233047
C       -3.9616990435   -2.8581848823    3.7716418295
C       -1.5753462498   -0.4000753966    2.7110917457
C       -2.7829038375   -1.1348424342    3.1739509294
N       -0.4841090693   -0.3200230719    3.5038126775
N       -1.6187545650    0.1188600123    1.4763408526
N       -3.9230281567   -0.6454708796    3.5578152902
O       -2.7442746290   -2.5101291443    3.2932942600
H        1.4442966939    1.4328616327    1.4314117145
H        1.4598757321    0.4137194378    3.6797826065
H       -0.5769856953    1.2066799447    0.0324809375
H       -5.7073140179   -1.6761578498    4.3042269039
H       -4.2958962399   -3.8655561131    3.9880742602
16   

C        0.5786363789    0.9159431588    1.8043310997
C        0.6126052861    0.2448748506    3.0051681396
C       -0.5852087282    0.8795663929    1.0693338109
C       -4.7183783653   -1.7400886031    3.8168820641
C       -3.9175636007   -2.8336455994    3.8925727227
C       -1.5766016481   -0.3981200293    2.6974939077
C       -2.7800939182   -1.1407983584    3.1415150940
N       -0.4517812103   -0.4139296552    3.4464697977
N       -1.6504791918    0.2192979022    1.5091575262
N       -3.9783566284   -0.6785839134    3.3504301465
O       -2.6802919419   -2.4777311458    3.4748117883
H        1.4446640849    1.4540360145    1.4462742644
H        1.5183586098    0.2515769310    3.6008505876
H       -0.6344174025    1.3947423676    0.1168261485
H       -5.7677954046   -1.7080610823    4.0855632270
H       -4.2158425751   -3.8187322098    4.2301428164
16   

C        0.5721970298    0.9272238406    1.8048512495
C        0.6423196567    0.1711865889    2.9524063509
C       -0.6216451065    0.9643237110    1.1197586175
C       -4.7340812633   -1.7785961240    3.7100835725
C       -3.8925208932   -2.8015122331    4.0063068067
C       -1.5707774573   -0.4111713810    2.6943552372
C       -2.7686437239   -1.1575242146    3.1312680206
N       -0.4159710095   -0.4988884950    3.3914284485
N       -1.6808212062    0.2929535143    1.5568374322
N       -4.0049188901   -0.7459769222    3.1683711019
O       -2.6394758384   -2.4302702328    3.6541447172
H        1.4334244843    1.4744171693    1.4490170118
H        1.5720112142    0.1194501936    3.5076249003
H       -0.6999673540    1.5476011170    0.2094033720
H       -5.8047042106   -1.7748170023    3.8781175286
H       -4.1739674022   -3.7492011829    4.4490122893
16   

C        0.5623846237    0.9396888655    1.8048615014
C        0.6651130531    0.1107793073    2.8983269654
C       -0.6577885020    1.0409981698    1.1749193174
C       -4.7429298986   -1.8252809250    3.6139507176
C       -3.8859660348   -2.7515758428    4.1132444815
C       -1.5667023552   -0.4218526282    2.6951361807
C       -2.7608623401   -1.1667580728    3.1327682215
N       -0.3865853461   -0.5690929138    3.3381484961
N       -1.7105248848    0.3603973664    1.6127078023
N       -4.0153890222   -0.8292402137    3.0061071347
O       -2.6241828903   -2.3553320000    3.8256005529
H        1.4185266760    1.4943926361    1.4483892412
H        1.6155095912    0.0089869163    3.4098525522
H       -0.7626647976    1.6836927477    0.3082966475
H       -5.8235928925   -1.8629665138    3.6862159429
H       -4.1629717208   -3.6508855843    4.6497339128
16   

C        0.5524585765    0.9576451764    1.8121437798
C        0.6801931287    0.0637231214    2.8502840996
C       -0.6891514523    1.1199542469    1.2395818592
C       -4.7451379200   -1.8743454303    3.5345369453
C       -3.8935374529   -2.6793471528    4.2185561664
C       -1.5674453144   -0.4204457477    2.7012357553
C       -2.7603092496   -1.1609466298    3.1439190763
N       -0.3673417139   -0.6221845603    3.2906604274
N       -1.7378423245    0.4339711890    1.6783088960
N       -4.0140596502   -0.9205851970    2.8664543822
O       -2.6314754452   -2.2473423153    3.9898929199
H        1.4054900003    1.5165370194    1.4547599112
H        1.6472082533   -0.0851025914    3.3171977528
H       -0.8147180537    1.8163985513    0.4184328438
H       -5.8247742376   -1.9671992520    3.5192610458
H       -4.1743688025   -3.5209013902    4.8400294219
16   

C        0.5490480664    0.9715131518    1.8276904144
C        0.6933538842    0.0150052248    2.8061480836
C       -0.7084557878    1.1943943612    1.3131710569
C       -4.7365160580   -1.9344111688    3.4596920185
C       -3.9122961388   -2.5985522006    4.3085191435
C       -1.5672838730   -0.4194497466    2.7059281953
C       -2.7615353951   -1.1545346662    3.1522033422
N       -0.3528689755   -0.6752277104    3.2428789699
N       -1.7560094260    0.5048648835    1.7489051560
N       -3.9947168180   -1.0285273564    2.7389717164
O       -2.6571336128   -2.1235782495    4.1335106182
H        1.4012456458    1.5331044738    1.4725565469
H        1.6725742083   -0.1803401368    3.2283368370
H       -0.8478369231    1.9427734402    0.5414268626
H       -5.8045159809   -2.0925011146    3.3656120581
H       -4.2069768296   -3.3739430833    5.0051117489
16   

C        0.5479136933    0.9806558912    1.8428970172
C        0.7019439798   -0.0365420033    2.7565455172
C       -0.7207757143    1.2637273614    1.3889377343
C       -4.7180205801   -2.0062229359    3.3915205071
C       -3.9401937047   -2.5117105088    4.3817772800
C       -1.5694809895   -0.4189194107    2.7038512655
C       -2.7662633005   -1.1489628187    3.1532201611
N       -0.3452550873   -0.7293510229    3.1868125746
N       -1.7694755096    0.5722733125    1.8189647141
N       -3.9608223167   -1.1526407893    2.6243712614
O       -2.6995941355   -1.9866664927    4.2515471116
H        1.4010381298    1.5436272102    1.4921983049
H        1.6897281628   -0.2783013112    3.1321916401
H       -0.8682437338    2.0623466897    0.6709213157
H       -5.7641839294   -2.2390460182    3.2308806571
H       -4.2564008333   -3.2137008270    5.1437034789
16   

C        0.6387261794    0.8369695957    1.8289002654
C       -0.3408380904    1.4524167590    2.5739014929
C        0.4989002169   -0.5034789180    1.5467770021
C       -3.9498807451   -2.8844844955    3.8682248736
C       -4.6558429437   -1.7254774486    3.8643700327
C       -1.4726472766   -0.5480637769    2.7248364727
C       -2.6255460079   -1.3481765063    3.1755755822
N       -1.3906163376    0.7699806047    3.0143512734
N       -0.5514015026   -1.1873322576    1.9853474193
N       -2.6694849395   -2.6259683864    3.4385339312
O       -3.8382015839   -0.7365193804    3.4339376821
H        1.4941145984    1.3926862923    1.4721954076
H       -0.2577378444    2.5080763899    2.8061768460
H        1.2548644408   -1.0095861827    0.9573164749
H       -4.3321167008   -3.8541092105    4.1652079074
H       -5.6927163581   -1.6110403599    4.1561042008
16   

C        0.6291870545    0.8432531767    1.8202923070
C       -0.3059399542    1.4278038191    2.6432857729
C        0.4505672024   -0.4741938348    1.4618397307
C       -3.9277799609   -2.8648350804    3.9618469668
C       -4.6829268357   -1.7582447155    3.7437193915
C       -1.4661305941   -0.5597737231    2.7231230822
C       -2.6216733901   -1.3634341186    3.1721693703
N       -1.3491768884    0.7369889040    3.0862016307
N       -0.5936414797   -1.1661988809    1.9027220242
N       -2.6276872697   -2.5930315791    3.6050361616
O       -3.8768739475   -0.7902337137    3.2485257013
H        1.4795911585    1.4054421396    1.4618123097
H       -0.1927736048    2.4655774336    2.9356766105
H        1.1701854658   -0.9549659912    0.8090747633
H       -4.2897634891   -3.8065775168    4.3575387323
H       -5.7451481111   -1.6650646784    3.9342917190
16   

C        0.6220919649    0.8579835922    1.8183200473
C       -0.2565689064    1.4045692666    2.7253459962
C        0.3958425818   -0.4293642029    1.3851612509
C       -3.9083703425   -2.8208471801    4.0776101381
C       -4.6917281152   -1.8007376964    3.6432976166
C       -1.4537984945   -0.5619593934    2.7370103695
C       -2.6089975001   -1.3690837869    3.1965672664
N       -1.2909208255    0.7056853705    3.1763086836
N       -0.6398043041   -1.1291633807    1.8345128499
N       -2.5951895841   -2.5240685446    3.7956881570
O       -3.8899196485   -0.8638050817    3.0853536534
H        1.4653673943    1.4264385865    1.4529459553
H       -0.1057719967    2.4185600212    3.0779854178
H        1.0701360312   -0.8795035204    0.6655769432
H       -4.2603488361   -3.7193737036    4.5708167079
H       -5.7700366712   -1.7450819922    3.7297422341
16   

C        0.6093471457    0.8596005410    1.8087563666
C       -0.1966152555    1.3679666282    2.8015839965
C        0.3156166779   -0.3878227522    1.3048515922
C       -3.9107442843   -2.7632049860    4.1851172138
C       -4.7009434585   -1.8718550856    3.5336467976
C       -1.4582469152   -0.5563153344    2.7487684390
C       -2.6115783175   -1.3634286152    3.2290920036
N       -1.2267262023    0.6708015748    3.2647104692
N       -0.7156806128   -1.0860516851    1.7670537892
N       -2.5938726319   -2.4188595949    3.9857099661
O       -3.8989707808   -0.9694976257    2.9215419575
H        1.4489785827    1.4266143397    1.4328952466
H        0.0087175132    2.3499025263    3.2125727003
H        0.9325559189   -0.8074015473    0.5184399051
H       -4.2610793542   -3.6057485550    4.7698263462
H       -5.7838337345   -1.8802970835    3.5090511635
16   

C        0.6067746778    0.8532070372    1.8029939746
C       -0.1030398045    1.3290786371    2.8818835583
C        0.2133473297   -0.3392850267    1.2374108290
C       -3.9162741760   -2.6687277211    4.3136650740
C       -4.6906457855   -1.9550882578    3.4565172444
C       -1.4743504222   -0.5152003559    2.7788121827
C       -2.6236319271   -1.3123750311    3.2916249820
N       -1.1385599681    0.6542794842    3.3655476365
N       -0.8227560545   -1.0161177907    1.7205709239
N       -2.6128503108   -2.2452491045    4.1933172265
O       -3.8919226747   -1.0850125012    2.7953372626
H        1.4504950369    1.4023269706    1.4100979440
H        0.1839289133    2.2664048038    3.3448499025
H        0.7553466197   -0.7331080450    0.3852084584
H       -4.2682949696   -3.4449533368    4.9830364584
H       -5.7603835931   -2.0629654016    3.3247684938
16   

C        0.6080946478    0.8434671284    1.7979075827
C       -0.0053545941    1.2833626619    2.9489311282
C        0.1045622143   -0.2780729779    1.1769970526
C       -3.9503968062   -2.5419428259    4.4111947997
C       -4.6735070976   -2.0361094033    3.3793060459
C       -1.5082699164   -0.4512970737    2.7972532127
C       -2.6578079717   -1.2296652904    3.3307606956
N       -1.0561229242    0.6433895915    3.4465701657
N       -0.9461702170   -0.9213656854    1.6742781813
N       -2.6771100467   -2.0238054795    4.3582639729
O       -3.8735031042   -1.2008418148    2.6761059671
H        1.4640478789    1.3646518632    1.3935860464
H        0.3717833033    2.1628484611    3.4583827178
H        0.5716702287   -0.6438125040    0.2697183995
H       -4.3160888141   -3.2427355783    5.1525839859
H       -5.7091346812   -2.2624356684    3.1566484059
16   

C        0.6142361783    0.8340237343    1.7941100936
C        0.0740940678    1.2197096407    2.9997778263
C        0.0274338605   -0.2144097410    1.1212265804
C       -3.9972006094   -2.4274942952    4.4664110689
C       -4.6381569508   -2.1271584740    3.3080002935
C       -1.5277878163   -0.4203437647    2.7957815768
C       -2.6806488808   -1.1826799398    3.3308197095
N       -0.9870869313    0.5987731189    3.4988820958
N       -1.0335638144   -0.8391441317    1.6203392914
N       -2.7588060165   -1.8288773053    4.4575632802
O       -3.8218617444   -1.3409656628    2.5680284462
H        1.4786400415    1.3399146102    1.3883549841
H        0.5185717564    2.0399689909    3.5519396277
H        0.4369457560   -0.5378485688    0.1710739251
H       -4.3946319614   -3.0432665507    5.2647614765
H       -5.6290781464   -2.4600902914    3.0241998640
16   

C        0.6078663272    0.8419460989    1.7944546421
C        0.1303542130    1.1598295971    3.0451332385
C       -0.0417120659   -0.1376866979    1.0776470507
C       -4.0519341735   -2.3226889899    4.5103527934
C       -4.5952572828   -2.2175532265    3.2711344333
C       -1.5379093742   -0.4096308674    2.7990505095
C       -2.6924606036   -1.1631347926    3.3296527631
N       -0.9309950010    0.5401654346    3.5448604186
N       -1.1030646304   -0.7609637122    1.5777469089
N       -2.8478532445   -1.6583059102    4.5254558056
O       -3.7513491936   -1.4901469540    2.5028014793
H        1.4724078174    1.3468992677    1.3878405136
H        0.6248695205    1.9248890846    3.6328470360
H        0.3178208946   -0.4076259067    0.0912578535
H       -4.4928042366   -2.8489359987    5.3489105022
H       -5.5388090450   -2.6429932114    2.9517415802
16   

C        0.6097874094    0.8530731927    1.7843784858
C        0.1882126065    1.0971689374    3.0709180880
C       -0.0903120429   -0.0622672039    1.0315725475
C       -4.1019776892   -2.2345054359    4.5170241430
C       -4.5324439411   -2.3170752420    3.2330868908
C       -1.5265763238   -0.4181013507    2.7906759977
C       -2.6826881491   -1.1680852169    3.3132557480
N       -0.8674932646    0.4681763320    3.5704636842
N       -1.1464673258   -0.6942013396    1.5317398107
N       -2.9323388767   -1.5121183562    4.5473881972
O       -3.6505776714   -1.6523214080    2.4510648796
H        1.4697472660    1.3656300485    1.3775763823
H        0.7225211715    1.8110758098    3.6874586900
H        0.2240827019   -0.2734377393    0.0158697639
H       -4.5972533419   -2.6701176829    5.3769170947
H       -5.4253677465   -2.8270325313    2.8926124003
16   

C        0.6035107677    0.8600783195    1.7795694329
C        0.2377618080    1.0293144854    3.0947062053
C       -0.1437678965    0.0067027627    1.0001266574
C       -4.1593302919   -2.1558480155    4.5180609589
C       -4.4684514510   -2.4225284235    3.2246527583
C       -1.5155532864   -0.4385121097    2.7915777259
C       -2.6734916508   -1.1861795937    3.3086164109
N       -0.8090271974    0.3873803664    3.5962656524
N       -1.1915707643   -0.6373323437    1.5023516696
N       -3.0253022578   -1.3791905543    4.5518199329
O       -3.5440749026   -1.8220616807    2.4399829204
H        1.4562147837    1.3831740197    1.3709161799
H        0.8091319169    1.6942178031    3.7324435882
H        0.1253651778   -0.1443456107   -0.0390260068
H       -4.7144812894   -2.5003635268    5.3826884869
H       -5.3081029564   -3.0133890218    2.8794655152
16   

C        0.5898080793    0.8762616259    1.7727203390
C        0.2840120049    0.9680419684    3.1105954368
C       -0.2076048011    0.0878749412    0.9748306967
C       -4.2211153686   -2.0703377488    4.5082959671
C       -4.4054234819   -2.5124791509    3.2395693906
C       -1.5081915876   -0.4497870830    2.7943051359
C       -2.6678672084   -1.1944533766    3.3104140411
N       -0.7525631411    0.3131526005    3.6165125228
N       -1.2458837770   -0.5681688463    1.4812459901
N       -3.1237759062   -1.2424826400    4.5340625255
O       -3.4373307559   -1.9737802374    2.4629310506
H        1.4342986901    1.4097742355    1.3604945575
H        0.8948015506    1.5817909658    3.7629127952
H        0.0129489789   -0.0005466539   -0.0828192135
H       -4.8379543571   -2.3277227355    5.3613639705
H       -5.1902334653   -3.1801753806    2.9055974322
