29   

C        3.0827029194   -2.8218753803    0.6820311046
C        2.4534636790   -1.6325950170    0.3053526113
C        2.8695743052   -3.3444784987    1.9603008076
C        1.6098881007   -0.9700395090    1.2041689509
C        2.0330876839   -2.6757474913    2.8610613768
C       -0.1575989628   -4.4162706622    5.7021310591
C       -0.0375801224   -5.6846960798    5.1284489280
C       -1.3787832348   -3.6780500987    3.7569959720
C        1.3909331718   -1.4815425091    2.4939293585
C       -0.8176547228   -3.3954465359    5.0107487941
C       -0.5733645891   -5.9592498107    3.8635864556
C       -1.2570319758   -4.9433436677    3.1712821676
C        0.5091501165   -0.7873169015    3.4275816395
C        0.3878060838   -0.8933446838    4.8032310948
O       -2.2147532484   -1.0958871385    5.3467789428
O       -0.6357915582   -1.7072142936    7.1429117498
S       -0.9261336337   -1.7117408648    5.7003690675
Cl      -0.3811975999   -7.5551547477    3.1713580188
Cl      -1.9479169351   -5.2290016392    1.5884465880
H        3.7341671952   -3.3370877830   -0.0151576506
H        2.6195443703   -1.2220936449   -0.6843805461
H        3.3525552256   -4.2693683041    2.2546953705
H        1.1310723523   -0.0475093593    0.8946281136
H        1.8778949750   -3.0953022244    3.8484419381
H        0.2669750465   -4.2216983722    6.6842729587
H        0.4796976157   -6.4708589026    5.6658260717
H       -1.9103882046   -2.9001827993    3.2158517955
H       -0.1573255978   -0.0580506201    2.9775435649
H        1.1773330650   -0.5106749979    5.4303039116
29   

C        2.8591141356   -3.1018728787    0.8812353826
C        2.1716627702   -1.9876714239    0.3940603302
C        2.8007581140   -3.4115036705    2.2421497462
C        1.4213591983   -1.1898659200    1.2651849276
C        2.0566683955   -2.6080706338    3.1131141232
C       -0.0688154387   -4.3959075890    5.5514181951
C        0.1166109874   -5.6109777402    4.8865902355
C       -1.2398746359   -3.5466636312    3.6210152020
C        1.3501342919   -1.4909951026    2.6357523453
C       -0.7337956173   -3.3440579338    4.9132886148
C       -0.3570492525   -5.8005285537    3.5818709198
C       -1.0493173238   -4.7559487960    2.9433002984
C        0.5415697750   -0.6668667387    3.5329816962
C        0.3628656861   -0.7591282830    4.8918645275
O       -2.2272494461   -1.1359332511    5.4093957026
O       -0.6265268582   -1.8001739973    7.1584548988
S       -0.9112073709   -1.7173103522    5.7170195953
Cl      -0.0762652122   -7.3270348521    2.7734299949
Cl      -1.6611377267   -4.9340324655    1.3129335328
H        3.4361695297   -3.7235078813    0.2056041456
H        2.2176028756   -1.7423182877   -0.6611009271
H        3.3316023791   -4.2761504946    2.6240101025
H        0.8910284577   -0.3323897666    0.8658222940
H        2.0252698870   -2.8633854074    4.1658070166
H        0.3118025956   -4.2653109733    6.5616975676
H        0.6393754195   -6.4204985208    5.3821544501
H       -1.7747020644   -2.7452796742    3.1191782420
H        0.0264570952    0.1671778812    3.0668281302
H        0.9922734881   -0.1860506272    5.5544232912
29   

C        2.7121504097   -3.3431499722    1.1795719119
C        1.8944771270   -2.3819685078    0.5804000320
C        2.8485279911   -3.3677901292    2.5694351076
C        1.2074314547   -1.4535235456    1.3705879786
C        2.1625241684   -2.4376303270    3.3579132389
C        0.0641289805   -4.3433258387    5.2751910188
C        0.2745572924   -5.4854178572    4.4980428108
C       -1.2185337506   -3.3827094166    3.4726224586
C        1.3233561206   -1.4752888117    2.7703028578
C       -0.6669705537   -3.2695186450    4.7571456369
C       -0.2381203324   -5.5789423278    3.1977659865
C       -1.0004246276   -4.5159100298    2.6812536615
C        0.5569883417   -0.5315974344    3.5915111066
C        0.3097579057   -0.6052979790    4.9287815607
O       -2.2252707647   -1.1868365157    5.5222249103
O       -0.5132983013   -1.9181507025    7.1198088217
S       -0.8679583327   -1.7244330323    5.7045950168
Cl       0.0832192401   -7.0096309848    2.2426880769
Cl      -1.6616059014   -4.5742848196    1.0615474553
H        3.2392637629   -4.0669450614    0.5679222096
H        1.7879949924   -2.3593212940   -0.4983793678
H        3.4836513201   -4.1107071376    3.0381893817
H        0.5695776069   -0.7219317100    0.8870749596
H        2.2785929757   -2.4722985474    4.4352174146
H        0.4793838397   -4.2843239319    6.2783244940
H        0.8505899177   -6.3103414438    4.8999232432
H       -1.8058955062   -2.5652918540    3.0647080792
H        0.1774295449    0.3506638228    3.0858525824
H        0.7104192179    0.1447696093    5.5927820430
29   

C        2.6384561940   -3.4109879269    1.2925159495
C        1.8134304192   -2.4767841726    0.6614683926
C        2.8032020984   -3.3654374305    2.6788974951
C        1.1468026088   -1.5056027102    1.4169618262
C        2.1362298896   -2.3934608896    3.4327154280
C        0.0736549641   -4.3640957039    5.1657728426
C        0.2871481063   -5.4897444619    4.3663605867
C       -1.2222755848   -3.3753146497    3.3882157277
C        1.2882190430   -1.4597054698    2.8135285382
C       -0.6656476221   -3.2839828798    4.6721341070
C       -0.2304338973   -5.5608516026    3.0668883647
C       -1.0006532800   -4.4920614482    2.5741153730
C        0.5491190935   -0.4630326373    3.6015159598
C        0.1777163589   -0.5370859577    4.9009296734
O       -2.2812436493   -1.3049190881    5.5732170023
O       -0.4671468932   -1.9895379421    7.0581789760
S       -0.8888016516   -1.7705383933    5.6650201126
Cl       0.0937050730   -6.9718450564    2.0839089045
Cl      -1.6693410928   -4.5241963437    0.9568318809
H        3.1498602394   -4.1677205846    0.7080021966
H        1.6857477825   -2.5080441447   -0.4147957614
H        3.4455040938   -4.0861210861    3.1718992709
H        0.5038617890   -0.7942692469    0.9104865825
H        2.2740611044   -2.3708425040    4.5080034652
H        0.4906448375   -4.3237884697    6.1691278515
H        0.8683568683   -6.3192923967    4.7508604047
H       -1.8180149194   -2.5545927959    3.0000041756
H        0.3125165676    0.4653560208    3.0913549518
H        0.3712486567    0.3044235714    5.5481885972
29   

C        3.1677647094   -3.5332150431    1.9159897830
C        2.1371529493   -3.0576346698    1.1005594093
C        3.3157870579   -3.0304910252    3.2113554163
C        1.2559216800   -2.0817712648    1.5800463676
C        2.4308447206   -2.0590135625    3.6914081553
C        0.1832878355   -4.2675977968    4.4964398263
C        0.0625141806   -5.2723088013    3.5356733047
C       -1.7898436867   -3.2026515680    3.6094605200
C        1.3863902772   -1.5765131221    2.8832335265
C       -0.7309589928   -3.2087298876    4.5275327986
C       -0.9723231715   -5.2470812178    2.5941941064
C       -1.9153111743   -4.2030748711    2.6365265906
C        0.4412454624   -0.5694488990    3.3935683275
C        0.0186328725   -0.4506164304    4.6670491825
O       -1.7867291354   -1.4780897634    6.3421788568
O        0.5429855620   -2.1442764795    6.6844427075
S       -0.5093428163   -1.8299401467    5.7032337407
Cl      -1.0667209277   -6.5071027162    1.3833910719
Cl      -3.2294240826   -4.1227854793    1.4833894655
H        3.8519945630   -4.2876152988    1.5437405690
H        2.0186764244   -3.4464965379    0.0953884362
H        4.1169753748   -3.3911900684    3.8467979064
H        0.4571156730   -1.7289946487    0.9372137221
H        2.5587807665   -1.6784687812    4.7001595005
H        1.0055058444   -4.2966402536    5.2070671262
H        0.7879173592   -6.0765806134    3.5085955065
H       -2.5194572832   -2.3985896099    3.6342310402
H        0.0786871647    0.1633683209    2.6799025339
H       -0.2247927330    0.5203897111    5.0701450992
29   

C        3.1552258981   -3.5510012106    1.9805326421
C        2.1304086594   -3.0761319058    1.1572966156
C        3.3171605790   -3.0203075806    3.2631572463
C        1.2692908688   -2.0728800905    1.6163209697
C        2.4516474072   -2.0217612122    3.7228512488
C        0.1925777530   -4.2724339244    4.4216604389
C        0.0491834853   -5.2764829283    3.4634873522
C       -1.7967250949   -3.2027480236    3.5781610132
C        1.4135482124   -1.5401628956    2.9068730432
C       -0.7194551073   -3.2124542985    4.4743807983
C       -1.0060772818   -5.2491711876    2.5451780951
C       -1.9452775812   -4.2027132928    2.6078104959
C        0.4914195913   -0.4965766593    3.3940130478
C       -0.0667401049   -0.4280106557    4.6129763685
O       -1.7228243428   -1.5481993103    6.3760594274
O        0.6447016331   -2.1318290758    6.5668018947
S       -0.4748764917   -1.8412608197    5.6546260127
Cl      -1.1305383823   -6.5099753170    1.3378878872
Cl      -3.2843828615   -4.1199551318    1.4839662281
H        3.8243512956   -4.3262764096    1.6240800606
H        2.0009343159   -3.4863357709    0.1620166960
H        4.1139985626   -3.3799093935    3.9046877738
H        0.4749808526   -1.7193759179    0.9683150459
H        2.5900351640   -1.6184493273    4.7213841133
H        1.0298106672   -4.3037108755    5.1144357544
H        0.7722155866   -6.0822124549    3.4209928999
H       -2.5241775036   -2.3975119954    3.6189055781
H        0.2400919154    0.2907083340    2.6905711474
H       -0.4516104233    0.5111567412    4.9798588450
29   

C        3.1276821131   -3.5688473519    2.0177706948
C        2.1035250640   -3.0787252925    1.2025948558
C        3.3159304753   -3.0315838746    3.2942414869
C        1.2699631482   -2.0533554138    1.6634307250
C        2.4772989444   -2.0109936263    3.7557662089
C        0.2031191319   -4.2812731054    4.4065130700
C        0.0615976105   -5.2912858605    3.4543079122
C       -1.7948809436   -3.2269340724    3.5647053422
C        1.4412729649   -1.5138681593    2.9476182170
C       -0.7150606233   -3.2266644236    4.4578338585
C       -0.9973779116   -5.2748277246    2.5400317655
C       -1.9416702984   -4.2328554571    2.6002581103
C        0.5488647022   -0.4412576017    3.4356859218
C       -0.1477296657   -0.4286973687    4.5801756972
O       -1.7123730767   -1.5977307065    6.3909516515
O        0.6769434699   -2.1088885789    6.5123484937
S       -0.4769931785   -1.8506471920    5.6335721607
Cl      -1.1201515697   -6.5433855107    1.3407063285
Cl      -3.2855190772   -4.1634254740    1.4811415446
H        3.7757222736   -4.3611419957    1.6598208669
H        1.9531622178   -3.4939342997    0.2123383668
H        4.1121411225   -3.4032639433    3.9296146826
H        0.4758850533   -1.6867172684    1.0224515303
H        2.6343242226   -1.6023426083    4.7493649062
H        1.0430310350   -4.3041606576    5.0963279256
H        0.7887738361   -6.0933390179    3.4135816973
H       -2.5264032894   -2.4253693039    3.6034491828
H        0.4140086019    0.4053184185    2.7701380652
H       -0.6448193787    0.4745563315    4.8993454721
29   

C        1.9932867712   -3.0252215546    0.8731784672
C        1.0913816809   -1.9576174416    0.8733477309
C        2.7122659517   -3.3269536220    2.0330262648
C        0.9041196985   -1.1985895687    2.0339215195
C        2.5281417803   -2.5628343253    3.1909234488
C       -0.2606575206   -3.9909312876    5.4253878947
C        0.1598656496   -5.2869294772    5.1152951224
C       -0.9300110352   -3.6841851541    3.1297643239
C        1.6157291648   -1.4970033359    3.2072990660
C       -0.7925086088   -3.1691545177    4.4271454347
C        0.0486000422   -5.7902221715    3.8129425942
C       -0.5114549624   -4.9805319032    2.8088908119
C        1.4060280251   -0.7056417971    4.4417799888
C        0.2770703249   -0.6177839738    5.1553639018
O       -1.9175795468   -0.8275879175    3.6144291507
O       -2.1289841120   -1.3929809422    5.9856866966
S       -1.2765517802   -1.4461422823    4.7877277856
Cl       0.6087050109   -7.4105751936    3.4614303031
Cl      -0.6815945000   -5.5586666370    1.1651513409
H        2.1326758574   -3.6192452149   -0.0232921105
H        0.5321784338   -1.7186187508   -0.0244028673
H        3.4098009302   -4.1569114775    2.0362080455
H        0.1967139518   -0.3749518876    2.0233018314
H        3.0869533745   -2.8112228126    4.0861484666
H       -0.1644727802   -3.6181621460    6.4414470138
H        0.5825509028   -5.9151690160    5.8902556986
H       -1.3538243934   -3.0628906814    2.3457534009
H        2.2846595390   -0.2140085474    4.8468182660
H        0.2491256226   -0.0141883022    6.0495612756
29   

C        2.0062975835   -3.0174123908    0.8420003940
C        1.0958345329   -1.9581152050    0.8814154443
C        2.7378635180   -3.3468775043    1.9862307407
C        0.9116902557   -1.2359999490    2.0656120962
C        2.5565258330   -2.6200035790    3.1683852674
C       -0.2798694697   -3.9693803721    5.4410684477
C        0.1480375782   -5.2668939913    5.1477806595
C       -0.9396175996   -3.6920809572    3.1388248511
C        1.6336162947   -1.5642902764    3.2254498053
C       -0.8098418720   -3.1612491055    4.4307110194
C        0.0462844671   -5.7851657151    3.8505007084
C       -0.5126378869   -4.9896113449    2.8345954213
C        1.4256990953   -0.8172853644    4.4828525855
C        0.2570139186   -0.5880982184    5.0975551352
O       -1.9578807321   -0.8390793365    3.5931626334
O       -2.1331975932   -1.3617573322    5.9757839344
S       -1.2969987932   -1.4340557103    4.7674585603
Cl       0.6170026808   -7.4061992541    3.5198302886
Cl      -0.6699494268   -5.5861827314    1.1962198990
H        2.1434317861   -3.5827215214   -0.0731873688
H        0.5279532159   -1.6962512090   -0.0044572875
H        3.4432109027   -4.1697464450    1.9583097659
H        0.1994488881   -0.4167075441    2.0822117791
H        3.1256104107   -2.8913238055    4.0503614555
H       -0.1901605113   -3.5844051896    6.4531979648
H        0.5697201464   -5.8844199828    5.9318486020
H       -1.3622740819   -3.0818126713    2.3455512058
H        2.3213702613   -0.4546497401    4.9768192681
H        0.2099051653    0.1010476598    5.9267726334
29   

C        2.0458802269   -3.0038673694    0.8247126024
C        1.1162285194   -1.9625830934    0.8850273449
C        2.7814530024   -3.3444246562    1.9630499146
C        0.9167162567   -1.2698708430    2.0840578033
C        2.5844892626   -2.6473444807    3.1606112872
C       -0.2965554193   -3.9443517794    5.4545352397
C        0.1422309370   -5.2388934009    5.1640529238
C       -0.9611655326   -3.6788536346    3.1521719291
C        1.6419007246   -1.6102842881    3.2391436890
C       -0.8334853470   -3.1431002611    4.4423137791
C        0.0448060075   -5.7608907131    3.8678854783
C       -0.5221681557   -4.9728959932    2.8505641622
C        1.4140846867   -0.9000541771    4.5103590949
C        0.2256777130   -0.5425296280    5.0241797964
O       -2.0414377654   -0.8478573731    3.6164858029
O       -2.1176939685   -1.3335798027    6.0120156426
S       -1.3288064744   -1.4169174453    4.7729807657
Cl       0.6310756017   -7.3769780949    3.5402600402
Cl      -0.6736696284   -5.5738785347    1.2132873585
H        2.1951333465   -3.5462677015   -0.1023617018
H        0.5455539249   -1.6918075219    0.0036282345
H        3.5021834315   -4.1531097217    1.9184578831
H        0.1896118309   -0.4641656253    2.1151979169
H        3.1570469004   -2.9286554753    4.0371693189
H       -0.2094006484   -3.5558668841    6.4656101698
H        0.5697245359   -5.8509548221    5.9492575516
H       -1.3899969487   -3.0744999869    2.3576531485
H        2.2984719495   -0.6438228638    5.0847264941
H        0.1711510159    0.2392413004    5.7661711842
29   

C        2.1009048163   -3.0167862927    0.8191943980
C        1.1494086655   -1.9957027477    0.8812974340
C        2.8296594210   -3.3568765261    1.9619963317
C        0.9215031341   -1.3226225192    2.0863363359
C        2.6039383825   -2.6799416649    3.1660727362
C       -0.3168875088   -3.9385274833    5.4490011544
C        0.1296852340   -5.2251589940    5.1364221403
C       -1.0189523418   -3.6518637180    3.1601486385
C        1.6397857365   -1.6628277964    3.2464335943
C       -0.8752668569   -3.1299712747    4.4542182263
C        0.0190971345   -5.7318766618    3.8352598716
C       -0.5710470365   -4.9374553304    2.8361924753
C        1.3773105948   -0.9788394459    4.5233383938
C        0.1853130969   -0.5072739618    4.9364785143
O       -2.1748181484   -0.8583877258    3.7066794022
O       -2.0682273185   -1.3277275321    6.1051355004
S       -1.3724491886   -1.4097516955    4.8113919302
Cl       0.6184605731   -7.3369877255    3.4787541962
Cl      -0.7388518596   -5.5191884667    1.1936176659
H        2.2723797602   -3.5438128719   -0.1128854342
H        0.5839086835   -1.7257503674   -0.0036703874
H        3.5674981591   -4.1498820207    1.9156841179
H        0.1767526379   -0.5332757309    2.1181481939
H        3.1715415806   -2.9621464655    4.0455301254
H       -0.2183243214   -3.5610265849    6.4632914773
H        0.5744937899   -5.8424897028    5.9077692558
H       -1.4654966982   -3.0421601859    2.3795885103
H        2.2311489455   -0.8112279848    5.1717997384
H        0.1354177558    0.3710995749    5.5613876176
29   

C        2.2164201475   -3.0960032592    0.8619048767
C        1.2183607483   -2.1188132567    0.8831182162
C        2.9374349609   -3.3769159821    2.0254321846
C        0.9368090308   -1.4304660847    2.0680129767
C        2.6567376718   -2.6857354998    3.2097394926
C       -0.2934739339   -3.9442934006    5.4077450197
C        0.1530448055   -5.2092957120    5.0179835685
C       -1.1480961923   -3.5841799450    3.1817710129
C        1.6462131362   -1.7119363057    3.2490636939
C       -0.9271119727   -3.1088370469    4.4824153507
C       -0.0315051010   -5.6675791628    3.7074807253
C       -0.6992406755   -4.8476925873    2.7800330706
C        1.3243839411   -1.0170007913    4.5043598840
C        0.1282838398   -0.4729685229    4.8271813230
O       -2.3859005538   -0.8651074949    3.9770986614
O       -1.8972843366   -1.3591112659    6.3246675893
S       -1.4112127850   -1.4088173065    4.9367836589
Cl       0.5744147062   -7.2444603792    3.2504135348
Cl      -0.9599281371   -5.3693071825    1.1295368897
H        2.4302029372   -3.6343862137   -0.0548057180
H        0.6587334651   -1.8954801122   -0.0183617480
H        3.7123313008   -4.1350096309    2.0104392419
H        0.1569373333   -0.6756418691    2.0681499043
H        3.2196421347   -2.9227323116    4.1053919347
H       -0.1346563843   -3.6026243294    6.4272476312
H        0.6573244912   -5.8462234249    5.7348979147
H       -1.6544831672   -2.9535070495    2.4564436689
H        2.1362125403   -0.8835721535    5.2120008134
H        0.0782795502    0.5133557691    5.2618671518
29   

C        2.6772378032   -3.3421689841    1.2095406722
C        1.4361218579   -2.7087437288    1.1143874046
C        3.4658697357   -3.1539826475    2.3473529358
C        0.9832951408   -1.8937228434    2.1573864720
C        3.0082569142   -2.3432660603    3.3926228500
C       -0.1471815629   -3.9494367539    4.9855788436
C        0.1562760781   -5.1446779031    4.3322085068
C       -1.7294249010   -3.4171960534    3.2444797081
C        1.7560300269   -1.7111318615    3.3170730880
C       -1.0748431177   -3.0605804109    4.4316281960
C       -0.4663636724   -5.4834055465    3.1254805212
C       -1.4294014915   -4.6138451915    2.5801757351
C        1.2673555624   -0.8976570741    4.4350585254
C        0.0007845896   -0.4420834512    4.6481393599
O       -2.6472965113   -0.8558707732    4.7481443580
O       -1.3129955262   -1.5645538278    6.6815904604
S       -1.3825302856   -1.4441575034    5.2166551981
Cl      -0.0308998276   -6.9748516533    2.3202221592
Cl      -2.2417900931   -4.9914280887    1.0768965174
H        3.0273875125   -3.9753536537    0.4018116570
H        0.8212247595   -2.8501723522    0.2325690348
H        4.4324126008   -3.6396982782    2.4210414375
H        0.0195812112   -1.4062028264    2.0634326804
H        3.6313630783   -2.2155573035    4.2707845078
H        0.3548270225   -3.6995459488    5.9166228489
H        0.8923899411   -5.8168366614    4.7568028835
H       -2.4698752432   -2.7476705694    2.8153191297
H        2.0123115064   -0.5745130324    5.1551759000
H       -0.1989940092    0.6180834277    4.6341027883
29   

C        3.0106121344   -3.2111868203    1.1642589625
C        1.6684209776   -2.8281438633    1.1084154542
C        3.7865799681   -2.8578303056    2.2710233554
C        1.1046897424   -2.0933760094    2.1570482895
C        3.2185994818   -2.1300170012    3.3230074639
C       -0.2838069716   -3.9985122850    4.9701320846
C       -0.1003476589   -5.2144201882    4.3105006335
C       -1.9591453863   -3.3868323181    3.3459389566
C        1.8688635228   -1.7415967136    3.2828036226
C       -1.2007666126   -3.0626510875    4.4792541964
C       -0.8324776122   -5.5262012739    3.1592927816
C       -1.7799417252   -4.6043602904    2.6756181636
C        1.2769913305   -1.0028857039    4.3975854594
C       -0.0020855130   -0.5246148487    4.5430945662
O       -2.6424648779   -0.7913073924    4.9280125682
O       -1.1428467632   -1.5483720848    6.7284066268
S       -1.3654795570   -1.4326158144    5.2783610517
Cl      -0.5521032797   -7.0505825814    2.3465870613
Cl      -2.7258584639   -4.9465752620    1.2435906248
H        3.4485187961   -3.7786766979    0.3505217907
H        1.0618399395   -3.0999280235    0.2517175254
H        4.8300952034   -3.1490432314    2.3150087381
H        0.0633858650   -1.8006630052    2.0918955378
H        3.8368739797   -1.8688236854    4.1747388945
H        0.2999649386   -3.7726777668    5.8588913295
H        0.6248337633   -5.9257211365    4.6879780131
H       -2.6911072617   -2.6788575876    2.9664038214
H        1.9467830137   -0.7682777901    5.2188089548
H       -0.2402404370    0.4821557642    4.2377217664
29   

C        3.4364870480   -2.9928492476    1.0959454597
C        2.0396940844   -2.9536857741    1.1007721771
C        4.1497848648   -2.4245381879    2.1545938381
C        1.3588369541   -2.3424137391    2.1594977960
C        3.4669388199   -1.8216441620    3.2171561164
C       -0.4923495772   -4.1048870160    4.9853804215
C       -0.4779372670   -5.3502240537    4.3554639955
C       -2.1908501894   -3.3611070084    3.4420211449
C        2.0632571542   -1.7704198418    3.2319095748
C       -1.3388895630   -3.0919940550    4.5220942719
C       -1.3100348486   -5.6132697524    3.2611368484
C       -2.1817909358   -4.6078255707    2.8022056149
C        1.3546585436   -1.1353721192    4.3402092845
C        0.0527815110   -0.6746322947    4.4313703258
O       -2.5566299016   -0.7084251791    5.0327413865
O       -0.9772324099   -1.5576975611    6.7277795370
S       -1.3104751745   -1.4436780373    5.2988724073
Cl      -1.2481426114   -7.1827443397    2.4890621358
Cl      -3.2474767688   -4.8858170161    1.4419899916
H        3.9649156271   -3.4610867743    0.2728451403
H        1.4819247748   -3.3959938278    0.2828696221
H        5.2338068301   -2.4484843695    2.1515753275
H        0.2752005354   -2.3198365249    2.1463148045
H        4.0372248353   -1.3826717679    4.0284589098
H        0.1622419580   -3.9207859296    5.8337519404
H        0.1886543890   -6.1256535073    4.7146492435
H       -2.8690877735   -2.5905489126    3.0848583708
H        1.9432721445   -0.9858591702    5.2399578117
H       -0.2260896803    0.2087197732    3.8790039987
