29   

C        2.3220057210   -3.3713153205    0.4960856391
C        3.1980988045   -2.5967793779    1.2589490382
C        0.9445131794   -3.2466186195    0.6856205609
C        2.6974110174   -1.7147395468    2.2231506994
C        0.4430494279   -2.3633996734    1.6479498829
C       -0.1733535112   -3.4794186419    5.7544467030
C        0.4098255549   -4.7286297230    5.9782414922
C       -1.1143465137   -4.3114959508    3.6965881837
C        1.3108384069   -1.6114618286    2.4591259217
C       -0.9290604092   -3.2543779038    4.5998908684
C        0.2457883648   -5.7761639557    5.0634959867
C       -0.5294566532   -5.5650993618    3.9089479503
C        0.8672672910   -0.6482524085    3.4698439638
C       -0.3002261262   -0.4753195610    4.1185626354
O       -2.5075403910   -1.6521659829    3.0642588169
O       -2.4798292126   -1.2135973193    5.4586736876
S       -1.6897845899   -1.6260970107    4.2885705166
Cl       1.0007434463   -7.3234807024    5.3776840947
Cl      -0.7754745852   -6.8391751212    2.7340686277
H        2.7082428822   -4.0565241619   -0.2504009721
H        4.2678108848   -2.6790983300    1.1025216221
H        0.2596682895   -3.8253174321    0.0757724001
H        3.3994856360   -1.1232240527    2.8001523595
H       -0.6285401918   -2.2556246652    1.7179124300
H       -0.0402297604   -2.6824328083    6.4809620974
H        0.9977686951   -4.8947432729    6.8730813135
H       -1.7230559683   -4.1644225925    2.8087572415
H        1.6254189904    0.0750432229    3.7524033965
H       -0.4374724546    0.4184996118    4.7082058224
29   

C        2.1688332904   -3.5528027179    0.6819311140
C        3.0575576551   -2.9056575903    1.5439575641
C        0.8156315452   -3.2072311410    0.6939566824
C        2.5900918421   -1.9283867277    2.4300300133
C        0.3474808153   -2.2302779695    1.5793949600
C       -0.1068638085   -3.4261880754    5.7115850466
C        0.5518708750   -4.6442519947    5.8954191134
C       -0.9823591604   -4.2416655113    3.6188199926
C        1.2209392305   -1.6029353583    2.4840970223
C       -0.8670835659   -3.2074247930    4.5590222598
C        0.4602316176   -5.6659160608    4.9417854276
C       -0.3208077933   -5.4626065530    3.7899874314
C        0.7885850688   -0.5637590292    3.4267177528
C       -0.3743241938   -0.4020685206    4.0822573255
O       -2.5500289860   -1.6655014980    3.0763056029
O       -2.4862165838   -1.2413407468    5.4753895222
S       -1.7081013951   -1.6124482936    4.2834365762
Cl       1.3133221597   -7.1713985277    5.2033762966
Cl      -0.4757991419   -6.7037431610    2.5653393516
H        2.5293680622   -4.3123783813   -0.0029060457
H        4.1108037472   -3.1622394474    1.5259738598
H        0.1270522205   -3.6895676161    0.0090940062
H        3.2962029893   -1.4382125437    3.0909535859
H       -0.6971973472   -1.9509665454    1.5312093060
H       -0.0263131383   -2.6474940236    6.4651501756
H        1.1447258666   -4.8053463014    6.7878497034
H       -1.5898951887   -4.0980197184    2.7297022489
H        1.5488908879    0.1716655870    3.6695139606
H       -0.5408717515    0.5036682651    4.6453599266
29   

C        1.9549151069   -3.7091539321    0.8288071517
C        2.8092314854   -3.2514097758    1.8358162511
C        0.7022450114   -3.1144002453    0.6569599089
C        2.4073416923   -2.2072085649    2.6767166036
C        0.2978314325   -2.0742029044    1.5007866686
C       -0.0856480103   -3.3881517197    5.6851009529
C        0.6451906392   -4.5678993409    5.8469829112
C       -0.8671321080   -4.1929769463    3.5515170684
C        1.1372304989   -1.6222771799    2.5329554373
C       -0.8332824762   -3.1812849555    4.5220950021
C        0.6382094816   -5.5628834760    4.8611525567
C       -0.1337076236   -5.3750247016    3.7008701819
C        0.7369044206   -0.5324933946    3.4406843584
C       -0.4296955076   -0.3681635046    4.0831935455
O       -2.5434761294   -1.6832926043    3.0238443447
O       -2.5425222192   -1.2830472595    5.4335250027
S       -1.7324346463   -1.6162319673    4.2515430118
Cl       1.5875486788   -7.0148697243    5.0914766696
Cl      -0.1829505685   -6.5838059354    2.4356082722
H        2.2646892893   -4.5200698719    0.1788863112
H        3.7838601512   -3.7080946323    1.9659819418
H        0.0419925379   -3.4571529979   -0.1319862735
H        3.0802972716   -1.8656318151    3.4551399396
H       -0.6704230690   -1.6121859244    1.3394573065
H       -0.0650282257   -2.6267632441    6.4600256628
H        1.2317328687   -4.7180888198    6.7454443451
H       -1.4588060224   -4.0561596579    2.6507196006
H        1.5147256390    0.1854043157    3.6802553990
H       -0.6160014046    0.5356407257    4.6429343298
29   

C        1.8470414122   -3.7480611505    0.8906265296
C        2.6266528883   -3.3936798913    1.9956231081
C        0.6928442427   -3.0187495218    0.5912309133
C        2.2526323354   -2.3112453346    2.8003170364
C        0.3159872013   -1.9403985112    1.3991225947
C       -0.0781121480   -3.3634550905    5.6551662217
C        0.6730535001   -4.5294366598    5.8248933694
C       -0.8015850101   -4.1711232883    3.5019636145
C        1.0907881315   -1.5767877120    2.5123706319
C       -0.8077020760   -3.1650508196    4.4790623822
C        0.7022433466   -5.5202298890    4.8352924005
C       -0.0519677253   -5.3419453015    3.6619462223
C        0.6919943487   -0.4564548508    3.3922654672
C       -0.4509102876   -0.3416796510    4.0807140972
O       -2.5003457602   -1.6861457238    2.9417219632
O       -2.5850129852   -1.3127548673    5.3565299621
S       -1.7321621599   -1.6162468014    4.1967304189
Cl       1.6751372670   -6.9547828841    5.0765513840
Cl      -0.0588463688   -6.5489695908    2.3939209290
H        2.1348772614   -4.5885859111    0.2688352577
H        3.5194962500   -3.9617509896    2.2311863061
H        0.0853132111   -3.2896648377   -0.2651283148
H        2.8615256203   -2.0518904922    3.6590000150
H       -0.5844396277   -1.3837701709    1.1580034835
H       -0.0863135129   -2.6056907138    6.4338272291
H        1.2466137899   -4.6725044733    6.7329053966
H       -1.3746226884   -4.0381148429    2.5885950869
H        1.4530052744    0.2933521511    3.5829812960
H       -0.6456095486    0.5391056448    4.6731935033
29   

C        2.0812644663   -3.2008717861    0.8074135890
C        2.3630966256   -3.9910362084    1.9260918548
C        1.8244519189   -1.8357502986    0.9664060932
C        2.3931614368   -3.4154900668    3.2016116832
C        1.8527147338   -1.2614940809    2.2420048211
C       -0.8249578790   -3.9144594347    4.9266813913
C       -0.9392731958   -5.1886792624    4.3642041452
C       -1.0269840609   -2.9506482158    2.7257598205
C        2.1472752585   -2.0436623913    3.3688127183
C       -0.8487994545   -2.7819919524    4.1067157972
C       -1.0925264215   -5.3570376191    2.9821488524
C       -1.1463481668   -4.2223034688    2.1533358497
C        2.1380856025   -1.4559277123    4.7318931350
C        1.0608777457   -1.0821932333    5.4302754968
O       -0.8100272740   -0.0828867056    3.7617216069
O       -1.5529481107   -0.9114613537    5.9397597003
S       -0.6372766904   -1.1084610053    4.8050389011
Cl      -1.2112232901   -6.9708493653    2.3155807660
Cl      -1.3458949248   -4.3719227017    0.4204427477
H        2.0531291638   -3.6474436089   -0.1803914770
H        2.5505572383   -5.0519629540    1.8050241031
H        1.5965025749   -1.2211934661    0.1026048931
H        2.6000168898   -4.0396997867    4.0635249961
H        1.6361277532   -0.2040215117    2.3590373854
H       -0.7087576599   -3.8048655532    6.0014300065
H       -0.9079687248   -6.0636248626    5.0025875485
H       -1.0585752811   -2.0797587596    2.0768886607
H        3.0902047608   -1.4458307954    5.2525562253
H        1.1602105358   -0.7227889234    6.4429871226
29   

C        2.1000070018   -3.2793192831    0.8611411689
C        2.2728394394   -4.0141884945    2.0381577123
C        1.9395254332   -1.8916874949    0.9241414809
C        2.2877670053   -3.3612636486    3.2760795398
C        1.9575757928   -1.2397569474    2.1622229104
C       -0.7993051688   -3.9544825450    4.9175870015
C       -0.9078710782   -5.2112783039    4.3153916596
C       -1.0269132945   -2.9231093904    2.7495175603
C        2.1401816937   -1.9678322427    3.3463124774
C       -0.8393661525   -2.7967777623    4.1339283898
C       -1.0729235493   -5.3368074572    2.9299865279
C       -1.1430341193   -4.1768090865    2.1381742827
C        2.1264060470   -1.2895134311    4.6700026622
C        1.0602188145   -1.0368348903    5.4342764506
O       -0.9286200123   -0.0925641565    3.8835376344
O       -1.5321066711   -1.0225172461    6.0613926767
S       -0.6601557155   -1.1414304424    4.8820551454
Cl      -1.1860486163   -6.9293318208    2.2131627124
Cl      -1.3591886966   -4.2727328051    0.4034381678
H        2.0810472892   -3.7856094513   -0.0976622807
H        2.3854950207   -5.0914522450    1.9915504377
H        1.7953012047   -1.3200290688    0.0141144761
H        2.4097851343   -3.9405678260    4.1842869756
H        1.8173745126   -0.1643559468    2.2057816235
H       -0.6787102646   -3.8779019767    5.9947869074
H       -0.8651603975   -6.1060368209    4.9250711766
H       -1.0718465838   -2.0322327279    2.1290749623
H        3.0997569905   -1.0568200271    5.0898235965
H        1.1829347442   -0.6684730780    6.4412059145
29   

C        2.7883032431   -4.2957556842    2.0007113843
C        3.1455882508   -4.1035584232    3.3386401379
C        2.0482292329   -3.3161481193    1.3323333812
C        2.7582741725   -2.9364868623    4.0068926939
C        1.6646331181   -2.1491156247    2.0025144454
C       -0.3982658563   -4.1793694531    3.9962221491
C       -0.7766356956   -4.8744857834    2.8471968588
C       -1.7264166316   -2.2989477950    3.2794377365
C        2.0025143710   -1.9545791265    3.3505991127
C       -0.8571982315   -2.8759194227    4.2152495500
C       -1.6182486973   -4.2878155463    1.8958756582
C       -2.1038851631   -2.9853362797    2.1172429263
C        1.6164645780   -0.7049149725    4.0536402430
C        0.6689720958   -0.5680780713    4.9868592657
O       -1.4469012026   -1.3783681172    6.4010578682
O        0.5584981061   -2.7740346815    6.5355538321
S       -0.2950534073   -1.9359500658    5.6754083635
Cl      -2.0407990736   -5.1815081954    0.4518034002
Cl      -3.1576842837   -2.2037153204    0.9588655262
H        3.0871780343   -5.1998050233    1.4818960157
H        3.7239018692   -4.8573228763    3.8612731561
H        1.7697032007   -3.4598546240    0.2943423816
H        3.0369258329   -2.7967743699    5.0469470557
H        1.0902861691   -1.3962573662    1.4741130594
H        0.2717297507   -4.6465085033    4.7137161776
H       -0.4028772851   -5.8779166805    2.6826339924
H       -2.1057622043   -1.2947386333    3.4431837853
H        2.0700011957    0.2075031597    3.6800116654
H        0.4268860957    0.4032832430    5.3900446285
29   

C        2.8474056331   -4.2853830052    2.0180142862
C        3.0672229277   -4.1107180391    3.3872402662
C        2.2083545674   -3.2819085744    1.2844439167
C        2.6400282118   -2.9390194823    4.0219433503
C        1.7875300000   -2.1084722599    1.9203197225
C       -0.4114489309   -4.1920277456    3.9949101791
C       -0.8038591250   -4.8720754985    2.8415559413
C       -1.7303283505   -2.2944914860    3.3077144107
C        1.9831324431   -1.9310626064    3.2986739001
C       -0.8572747236   -2.8869506203    4.2299324419
C       -1.6495687829   -4.2696463536    1.9036923405
C       -2.1239990632   -2.9662902754    2.1427832216
C        1.5350846803   -0.6883072074    3.9660982485
C        0.6707270690   -0.5830064508    4.9832800024
O       -1.4104908933   -1.4096486309    6.4389637589
O        0.5998797151   -2.8000522657    6.5279988145
S       -0.2710333663   -1.9591507086    5.6882337402
Cl      -2.0924184954   -5.1455673524    0.4548381294
Cl      -3.1836096541   -2.1653091806    1.0030746168
H        3.1754702425   -5.1940395007    1.5255497087
H        3.5698047541   -4.8815185328    3.9608783096
H        2.0370544942   -3.4124005355    0.2217837221
H        2.8191560239   -2.8147624698    5.0855706884
H        1.2900835866   -1.3393889228    1.3398842146
H        0.2596286961   -4.6721170587    4.7027069337
H       -0.4392472336   -5.8765325263    2.6632771664
H       -2.0997187977   -1.2887608510    3.4842841795
H        1.8584954747    0.2400428204    3.5063551030
H        0.4396678442    0.3814109381    5.4090890217
29   

C        2.9381556775   -4.2200076694    1.9827390160
C        2.9751817566   -4.1077968050    3.3746933487
C        2.4433461078   -3.1624319146    1.2157296634
C        2.5064765156   -2.9457302140    3.9975422686
C        1.9814631467   -1.9985672915    1.8405215338
C       -0.4718360053   -4.1820180407    4.0738777250
C       -0.8817283368   -4.8997053385    2.9497126715
C       -1.7545489040   -2.2875815104    3.3140768850
C        1.9906428089   -1.8803797955    3.2396474813
C       -0.8906123440   -2.8597866022    4.2571468230
C       -1.7207676496   -4.3193157791    1.9919715696
C       -2.1677400092   -2.9980324494    2.1795916013
C        1.4740279099   -0.6565091255    3.8779540664
C        0.6641752122   -0.5463310133    4.9421104181
O       -1.4353545282   -1.3004043973    6.4079722648
O        0.5506762948   -2.7130205774    6.5624306374
S       -0.2983530188   -1.8894858135    5.6842543308
Cl      -2.1929041336   -5.2460495988    0.5845518069
Cl      -3.2206116427   -2.2239611739    1.0153127139
H        3.2978630427   -5.1213900079    1.4990632758
H        3.3709841579   -4.9189557763    3.9755962614
H        2.4153335936   -3.2438812567    0.1348961183
H        2.5619335323   -2.8719105898    5.0783563211
H        1.5947661597   -1.1900223736    1.2301284548
H        0.1876942726   -4.6487532247    4.8011824862
H       -0.5398288247   -5.9183876886    2.8113306358
H       -2.1050991501   -1.2691954794    3.4523359350
H        1.7213452917    0.2721382778    3.3736795584
H        0.4562763226    0.4248092618    5.3647916554
29   

C        3.0358064504   -4.0341724925    1.7318753524
C        2.7687047174   -4.1483471967    3.0970776906
C        2.8214727005   -2.8153139290    1.0865687705
C        2.2771234725   -3.0503917830    3.8117232414
C        2.3319147176   -1.7182541863    1.8038850485
C       -0.6795807168   -4.3060533237    4.3343947510
C       -1.1066375256   -5.1047700300    3.2727223532
C       -1.5975681874   -2.3706147420    3.2274302912
C        2.0358168978   -1.8186730847    3.1748676121
C       -0.9101462868   -2.9258693367    4.3150792672
C       -1.7733945511   -4.5475773434    2.1756356673
C       -2.0245008793   -3.1630130503    2.1541794404
C        1.4875024921   -0.6491378751    3.8708062028
C        0.6529315345   -0.5596063127    4.9213517992
O       -1.4770987868   -1.2550020772    6.3676410774
O        0.4920008352   -2.6577650828    6.6277612009
S       -0.3296151872   -1.8751239666    5.6885317181
Cl      -2.2816669166   -5.5825633517    0.8590993457
Cl      -2.8567065864   -2.4137882152    0.8090157093
H        3.4147387281   -4.8853924625    1.1772135362
H        2.9498536027   -5.0870847776    3.6082301404
H        3.0321012743   -2.7195955346    0.0272782808
H        2.1182103460   -3.1656702638    4.8757547207
H        2.1657948111   -0.7841830657    1.2787339564
H       -0.1628279383   -4.7589562313    5.1770992273
H       -0.9192178126   -6.1717241221    3.2951887613
H       -1.8019100849   -1.3047101433    3.2040374251
H        1.7648598857    0.3052555084    3.4347003115
H        0.4489584873    0.4115618411    5.3464204052
29   

C        3.3431329046   -3.9362527948    1.7049331863
C        2.8302861511   -4.1448918787    2.9852827170
C        3.2553516107   -2.6701254208    1.1267870663
C        2.2226000431   -3.0939809021    3.6813657899
C        2.6481496606   -1.6207099790    1.8248541994
C       -0.7889884110   -4.3438478341    4.3990079018
C       -1.3004524636   -5.1636909510    3.3917693806
C       -1.7282159886   -2.4208654486    3.2878797949
C        2.1088345871   -1.8098534557    3.1117901053
C       -0.9889235354   -2.9594785417    4.3498826609
C       -2.0230077570   -4.6240623000    2.3213245537
C       -2.2412319776   -3.2348258543    2.2699770070
C        1.4424836690   -0.6768155944    3.7569882841
C        0.6016603581   -0.5815683806    4.8046188615
O       -1.4303437398   -1.2475405308    6.3943535808
O        0.5509003663   -2.6439323942    6.5701904144
S       -0.3236131808   -1.8816675006    5.6627896930
Cl      -2.6428121664   -5.6864432944    1.0762277967
Cl      -3.1422955652   -2.5067604136    0.9577928241
H        3.8127149435   -4.7512934252    1.1654450745
H        2.9102456625   -5.1223350550    3.4473660500
H        3.6554027372   -2.5001666654    0.1334518498
H        1.8803459289   -3.2988763042    4.6836052415
H        2.5860854848   -0.6501946893    1.3451564126
H       -0.2363443399   -4.7846818427    5.2253026198
H       -1.1394954782   -6.2342898843    3.4377648351
H       -1.9113679812   -1.3517091395    3.2432532034
H        1.6711919215    0.2821573804    3.3031761890
H        0.3527388077    0.4012083559    5.1759377233
29   

C        2.8480716586   -2.1961289582    0.3981605422
C        1.4892035555   -2.1444646647    0.7054601913
C        3.7858451331   -1.8886361645    1.3823645625
C        1.0691152271   -1.7926639028    1.9932226473
C        3.3631074212   -1.5369204829    2.6687514058
C       -0.7088838211   -4.1786413800    5.3647506039
C       -0.6499513774   -5.5528835422    5.1236575789
C       -1.4878989236   -3.8356427451    3.1090312111
C        1.9959776804   -1.4836688375    3.0097179211
C       -1.1134190001   -3.3027489078    4.3517658166
C       -0.9991533933   -6.0817161205    3.8753945415
C       -1.4268036429   -5.2115765997    2.8559780926
C        1.6517682300   -1.1550317751    4.3938911743
C        0.5039679391   -1.0449878674    5.0926639046
O       -1.6783369305   -0.7795723687    3.4766253903
O       -2.0412979646   -1.2536952547    5.8383527577
S       -1.1947589841   -1.5058980302    4.6623260563
Cl      -0.9046447608   -7.8095975683    3.6128329845
Cl      -1.8861398415   -5.8177834782    1.2794266737
H        3.1721091626   -2.4700790796   -0.5997484384
H        0.7535187160   -2.3732181267   -0.0575292070
H        4.8443980550   -1.9248278048    1.1505783811
H        0.0082193060   -1.7504989765    2.1582099594
H        4.1205464001   -1.3111384554    3.4110473535
H       -0.4430632253   -3.7917988270    6.3448262477
H       -0.3324781500   -6.2241927366    5.9129359667
H       -1.8400558134   -3.1767615296    2.3201628260
H        2.5178851374   -0.9047258635    4.9977997758
H        0.5606723561   -0.6501709282    6.0958863719
29   

C        2.5737042080   -2.6838901547    0.6592738406
C        1.2555810548   -2.2934619249    0.8950608764
C        3.5375835897   -2.4841017370    1.6474503002
C        0.9003021654   -1.7157603927    2.1189710360
C        3.1794533347   -1.9070694118    2.8708054261
C       -0.3692639731   -4.1254122312    5.3946491464
C       -0.1334516058   -5.4672089855    5.0870668992
C       -1.3050002130   -3.8081781516    3.1954781699
C        1.8521548331   -1.5215584822    3.1399369982
C       -0.9433456483   -3.2774987327    4.4426906430
C       -0.4703189491   -5.9901982375    3.8325016039
C       -1.0668836187   -5.1496538717    2.8753586304
C        1.5406387527   -0.9859316772    4.4666903558
C        0.3870297600   -0.8071182444    5.1389706228
O       -1.9173080914   -0.8440458202    3.7014056235
O       -2.0349697980   -1.4123829136    6.0648053098
S       -1.2495258454   -1.5206133814    4.8259748642
Cl      -0.1492976644   -7.6750372119    3.4845283596
Cl      -1.5155159802   -5.7490854350    1.2931189574
H        2.8478569350   -3.1335371934   -0.2886595982
H        0.5048355952   -2.4302148778    0.1247041650
H        4.5648302653   -2.7811209872    1.4682457209
H       -0.1209768458   -1.3886488806    2.2346791283
H        3.9483405654   -1.7759969044    3.6240415569
H       -0.1072571065   -3.7417764204    6.3769242983
H        0.3155695321   -6.1176023208    5.8282726586
H       -1.7801064922   -3.1720278000    2.4537968922
H        2.4138765545   -0.6576681137    5.0211663209
H        0.4082755031   -0.2335002219    6.0532995722
29   

C        2.3665369310   -2.8756685622    0.7558141060
C        1.1397761546   -2.2297741725    0.9151883824
C        3.3044396773   -2.8398218348    1.7888689851
C        0.8467038009   -1.5625741660    2.1097194451
C        3.0092241126   -2.1707639889    2.9819708143
C       -0.2860191847   -4.0824336057    5.3888581810
C        0.0353274556   -5.4020034456    5.0621142727
C       -1.1457725646   -3.7638831890    3.1594256742
C        1.7694638624   -1.5350269365    3.1722012215
C       -0.8641240196   -3.2440850975    4.4312329037
C       -0.2184439503   -5.9113728704    3.7823853586
C       -0.8206320126   -5.0816409036    2.8196343959
C        1.4908088535   -0.8916382573    4.4613580667
C        0.3362431087   -0.7085524134    5.1266550653
O       -1.9683295519   -0.8636078379    3.7076789131
O       -2.0442456282   -1.4450042503    6.0721066535
S       -1.2625267611   -1.5088141950    4.8276568437
Cl       0.2136096886   -7.5656938484    3.4093500281
Cl      -1.1648265901   -5.6632993425    1.2048909577
H        2.5918449233   -3.3962925991   -0.1683709510
H        0.4140387545   -2.2391174727    0.1095808737
H        4.2613132034   -3.3349492973    1.6673664391
H       -0.0974671877   -1.0391979553    2.1829807387
H        3.7498255410   -2.1654951703    3.7739120856
H       -0.0847064730   -3.7074477774    6.3886253133
H        0.4887907921   -6.0449334156    5.8070043609
H       -1.6189365426   -3.1340785722    2.4112412499
H        2.3722650281   -0.5375213783    4.9862006117
H        0.3328208610   -0.0893195313    6.0108380715
29   

C        2.1200497602   -2.9628665639    0.8077642029
C        1.0734938830   -2.0426704809    0.9002503952
C        2.9596218029   -3.1692271846    1.9048963766
C        0.8578452998   -1.3431125841    2.0927729486
C        2.7462723215   -2.4634529242    3.0944103839
C       -0.2636135711   -4.0372386735    5.3840446795
C        0.1404162175   -5.3345066697    5.0587381775
C       -0.9881461481   -3.7171836077    3.1073748154
C        1.6814244415   -1.5556637811    3.2119421285
C       -0.8137225492   -3.2079306420    4.4022722377
C       -0.0031994402   -5.8305442756    3.7567481999
C       -0.5811373326   -5.0124939723    2.7696982571
C        1.4503236379   -0.8541780291    4.4870516315
C        0.2923686732   -0.6566461929    5.1360410143
O       -1.9499660770   -0.8557549936    3.6337040798
O       -2.1081052159   -1.4401640676    5.9996121070
S       -1.2801018109   -1.4855040847    4.7844352053
Cl       0.5378257076   -7.4527911817    3.3850977047
Cl      -0.7883747007   -5.5785023711    1.1261899364
H        2.2817934632   -3.5120045641   -0.1132254216
H        0.4260216640   -1.8693760681    0.0478566023
H        3.7748173106   -3.8805855186    1.8351795404
H        0.0491124252   -0.6215330292    2.1373784771
H        3.4027159599   -2.6421673948    3.9385895947
H       -0.1419012688   -3.6698640483    6.3993675391
H        0.5759528531   -5.9691194659    5.8212334895
H       -1.4323764146   -3.0922560693    2.3377255367
H        2.3446290332   -0.5216284568    5.0041356897
H        0.2665843397   -0.0297613767    6.0142553484
29   

C        2.0209848174   -2.9779175954    0.8329863856
C        1.1113941729   -1.9175482219    0.8655146000
C        2.7467455252   -3.3050865567    1.9815408199
C        0.9200584754   -1.1942870457    2.0480045003
C        2.5583410296   -2.5763702939    3.1613949534
C       -0.2694113198   -4.0090804800    5.3802669095
C        0.1551614926   -5.3037193712    5.0701557464
C       -0.9163636002   -3.6953501629    3.0791189150
C        1.6295380704   -1.5256280174    3.2132946678
C       -0.7917868003   -3.1844569505    4.3792860643
C        0.0573875876   -5.8026737364    3.7650366854
C       -0.4932198768   -4.9900307766    2.7581179459
C        1.4232965841   -0.7666093958    4.4665115469
C        0.2768085410   -0.6301812098    5.1448541026
O       -1.9034347961   -0.8369344896    3.5614489459
O       -2.1521470477   -1.4168480396    5.9238809610
S       -1.2795986979   -1.4626292881    4.7401604153
Cl       0.6222704040   -7.4213729721    3.4137064206
Cl      -0.6458682098   -5.5622118004    1.1106841590
H        2.1630019414   -3.5448269219   -0.0804664038
H        0.5500133860   -1.6554954278   -0.0244269673
H        3.4532296975   -4.1271339009    1.9587020496
H        0.2105850105   -0.3725338265    2.0587688397
H        3.1244311421   -2.8437926883    4.0464926536
H       -0.1835834722   -3.6396602323    6.3984944899
H        0.5705843509   -5.9342379703    5.8472044071
H       -1.3331650924   -3.0717743784    2.2931552278
H        2.3186966902   -0.3770078220    4.9399815976
H        0.2399718549   -0.0296204887    6.0407816351
29   

C        1.9874174159   -3.0003515436    0.8745151301
C        1.1729492917   -1.8650582242    0.8371464251
C        2.6058760270   -3.3719570461    2.0715386349
C        0.9729124730   -1.1076883991    1.9966991920
C        2.4057448642   -2.6112979047    3.2290356012
C       -0.2600924217   -4.0229841190    5.3990053270
C        0.1633921082   -5.3144602608    5.0735831103
C       -0.9072015443   -3.6820011147    3.1013469419
C        1.5741603006   -1.4811642216    3.2071219398
C       -0.7828979690   -3.1866553149    4.4077815232
C        0.0622169750   -5.7991742343    3.7633056436
C       -0.4887848693   -4.9748274323    2.7661613569
C        1.3733435136   -0.6667190348    4.4319323276
C        0.2687478577   -0.6225120063    5.1838498702
O       -1.9159929662   -0.8425010615    3.6172682356
O       -2.1440978316   -1.4425487257    5.9781368227
S       -1.2798098255   -1.4713237297    4.7877110440
Cl       0.6240696825   -7.4147799914    3.3932063486
Cl      -0.6474373270   -5.5303750083    1.1135214537
H        2.1375072353   -3.5919978070   -0.0218066186
H        0.6924349042   -1.5713470144   -0.0894624631
H        3.2373267995   -4.2526648012    2.1035660112
H        0.3339068296   -0.2306893310    1.9593024063
H        2.8886774257   -2.9101204660    4.1525199815
H       -0.1740886250   -3.6657588349    6.4215722438
H        0.5792670328   -5.9543170102    5.8427795639
H       -1.3212008627   -3.0477876017    2.3223187436
H        2.2515847403   -0.1575650595    4.8155740036
H        0.2458649737   -0.0465845911    6.0961997153
29   

C        2.0008783284   -3.1045978900    0.9056339623
C        1.2681995177   -1.9229038434    0.7620575596
C        2.5022280363   -3.4623485656    2.1601607010
C        1.0360326527   -1.1028048521    1.8720927091
C        2.2661488429   -2.6412727919    3.2684747817
C       -0.2207352607   -4.0657482196    5.3690327355
C        0.1883898445   -5.3473684011    4.9895397934
C       -0.9545803467   -3.6573845328    3.1082354033
C        1.5203713477   -1.4595771127    3.1377556883
C       -0.7797992422   -3.2005961548    4.4230961590
C        0.0354104827   -5.7937290561    3.6705210261
C       -0.5527785965   -4.9405688242    2.7199208447
C        1.2976309745   -0.5725293548    4.3104135501
C        0.2614730286   -0.5972849427    5.1532333188
O       -2.0314674861   -0.8788825824    3.7707719536
O       -2.0448360232   -1.5168685285    6.1299564793
S       -1.2802176699   -1.5036126779    4.8727564076
Cl       0.5799875667   -7.3979503344    3.2316134811
Cl      -0.7778275835   -5.4482047495    1.0595491649
H        2.1776565609   -3.7431526548    0.0471617726
H        0.8778779571   -1.6413491974   -0.2095848572
H        3.0696779638   -4.3789639103    2.2750754107
H        0.4636492634   -0.1884363700    1.7525359330
H        2.6586199729   -2.9279752139    4.2375457113
H       -0.0985186985   -3.7398043529    6.3984291914
H        0.6316858930   -6.0103085623    5.7230890043
H       -1.3981193444   -3.0006730160    2.3648407770
H        2.1082885291    0.1095243629    4.5459245677
H        0.2687853367    0.0038679342    6.0494555773
29   

C        3.0349361150   -3.5152458422    2.1410921064
C        1.9431756333   -3.0684832450    1.3899589187
C        3.3210254362   -2.9209125033    3.3742499245
C        1.1432099450   -2.0243885056    1.8682491589
C        2.5189018148   -1.8790040971    3.8530743276
C        0.1962009379   -4.2880833859    4.3855044558
C        0.1131052283   -5.3007931597    3.4293553588
C       -1.8098591590   -3.2957256736    3.4888045736
C        1.4311536507   -1.4136391991    3.0994111207
C       -0.7574984347   -3.2649358686    4.4139100134
C       -0.9187111174   -5.3152775405    2.4845607112
C       -1.8957816527   -4.3026304514    2.5177151515
C        0.5522199119   -0.3315478905    3.6110391879
C       -0.3455938780   -0.4263983433    4.5971876953
O       -1.8624943488   -1.7344608517    6.3626948984
O        0.5498774666   -2.1141402535    6.5033451503
S       -0.6061241354   -1.8994495452    5.6153834626
Cl      -0.9669132890   -6.5848992618    1.2811164494
Cl      -3.2067046552   -4.2720301408    1.3584986926
H        3.6560493290   -4.3227400892    1.7696804489
H        1.7125279092   -3.5338514371    0.4381966819
H        4.1627800126   -3.2672201606    3.9635581668
H        0.2923886955   -1.6936197302    1.2829769910
H        2.7382975285   -1.4320134610    4.8179325717
H        1.0161157841   -4.2854365072    5.0993810073
H        0.8654175609   -6.0800752970    3.4099726833
H       -2.5686225686   -2.5192157447    3.5088611840
H        0.5569706000    0.5917424340    3.0406827490
H       -0.9805477954    0.4101057984    4.8458347683
29   

C        3.0799948081   -3.5025376455    2.1267462546
C        2.0582945633   -3.0169432324    1.3050049628
C        3.2537510037   -2.9708295859    3.4080229782
C        1.2137728298   -1.9989771614    1.7625588275
C        2.4052086113   -1.9575780088    3.8675263247
C        0.1762326929   -4.3086853278    4.4129490284
C        0.0872419933   -5.3169429235    3.4526816717
C       -1.8240547202   -3.3015059136    3.5205482198
C        1.3783338008   -1.4600618123    3.0493728685
C       -0.7699364657   -3.2786386039    4.4436099667
C       -0.9458497112   -5.3226609838    2.5091315129
C       -1.9178985189   -4.3054948750    2.5475921315
C        0.4625115355   -0.3997601923    3.5265953024
C       -0.3440239897   -0.4472087316    4.5943177991
O       -1.8525505630   -1.7263924431    6.3892530460
O        0.5579059257   -2.1186797536    6.5177928579
S       -0.6024484062   -1.9061352983    5.6350506698
Cl      -1.0024213547   -6.5875339587    1.3010866670
Cl      -3.2314477589   -4.2645096377    1.3916938003
H        3.7366566785   -4.2885581635    1.7707137839
H        1.9184786180   -3.4303074978    0.3124489948
H        4.0460252231   -3.3414627545    4.0489021249
H        0.4208686303   -1.6361609106    1.1179697392
H        2.5486008947   -1.5534890994    4.8650154600
H        0.9965805914   -4.3135235293    5.1262523735
H        0.8355892504   -6.0999254286    3.4290039401
H       -2.5771259862   -2.5195448271    3.5426516935
H        0.3552189021    0.4620826587    2.8758101675
H       -0.9511500584    0.4044032298    4.8607161588
29   

C        3.1689464185   -3.4158310617    2.0462332837
C        2.2470919992   -2.8246832224    1.1776742851
C        3.2050531180   -3.0293511334    3.3887706678
C        1.3589735640   -1.8526162543    1.6520216687
C        2.3131692405   -2.0620432641    3.8646471372
C        0.1131416080   -4.3359748882    4.4587774735
C        0.0098292230   -5.3603558301    3.5171268589
C       -1.8622981001   -3.3077832010    3.5357800137
C        1.3698433411   -1.4732091673    3.0057975980
C       -0.8131282627   -3.2874401940    4.4642720764
C       -1.0200165270   -5.3657353980    2.5698382800
C       -1.9721245134   -4.3293301016    2.5833503901
C        0.4228466449   -0.4465999240    3.4780043970
C       -0.3341251942   -0.4599271462    4.5854622072
O       -1.8963330592   -1.6879743442    6.3685875431
O        0.4997050868   -2.1272791852    6.5482459938
S       -0.6372526299   -1.9021023996    5.6388845739
Cl      -1.0996640314   -6.6563199976    1.3905749354
Cl      -3.2826220788   -4.2881770152    1.4239714160
H        3.8593389338   -4.1664077971    1.6776869616
H        2.2203539455   -3.1191579657    0.1345265063
H        3.9283132651   -3.4733892662    4.0636661034
H        0.6486215515   -1.4046810837    0.9660173352
H        2.3708086395   -1.7594042051    4.9048915267
H        0.9269519240   -4.3457247053    5.1794721030
H        0.7418354652   -6.1590505212    3.5129972929
H       -2.6012763057   -2.5121737446    3.5400052435
H        0.2611989879    0.3873903364    2.8025818533
H       -0.9102382253    0.4109997898    4.8584911336
29   

C        3.2150493458   -3.2063821163    1.8146982419
C        2.4537223395   -2.3918972776    0.9729653027
C        3.0626787388   -3.1068686189    3.1996480624
C        1.5313385569   -1.4898784386    1.5150425883
C        2.1396933953   -2.2064748490    3.7427216088
C       -0.0128552656   -4.4295135232    4.7469963850
C       -0.0996696768   -5.5370009661    3.9023127798
C       -1.7679411415   -3.3538793320    3.4915066721
C        1.3408195966   -1.4058988107    2.9079785998
C       -0.8395071077   -3.3194419352    4.5406054881
C       -1.0113849300   -5.5630454611    2.8408216821
C       -1.8582893321   -4.4581895817    2.6345056550
C        0.3671113208   -0.4334560458    3.4188229611
C       -0.4028945394   -0.4581983779    4.5205270722
O       -1.9937777466   -1.6287038925    6.3119730532
O        0.3923037324   -2.0198715225    6.5865669611
S       -0.7132749030   -1.8592906727    5.6265416448
Cl      -1.0804054951   -6.9666544238    1.7977433790
Cl      -3.0189956717   -4.4383421590    1.3245995842
H        3.9300857322   -3.9052251607    1.3949597117
H        2.5783692763   -2.4589339230   -0.1020018634
H        3.6684372715   -3.7199632064    3.8573714175
H        0.9505182558   -0.8668315596    0.8439728632
H        2.0778736803   -2.1218381571    4.8199869714
H        0.7024156929   -4.4298704852    5.5658653193
H        0.5480176388   -6.3896789658    4.0679392275
H       -2.4306242662   -2.5095437083    3.3285088118
H        0.2042640515    0.4250071078    2.7749844721
H       -0.9893702433    0.4122869852    4.7728653541
29   

C        3.4620708350   -3.0065233346    1.7369229625
C        2.7925324170   -2.0836190151    0.9314268257
C        3.1263360382   -3.1172966198    3.0875082332
C        1.7791146221   -1.2848498101    1.4726140760
C        2.1128951881   -2.3193097290    3.6298265271
C       -0.0948377404   -4.4990425667    4.8131098208
C       -0.2639738880   -5.6467840333    4.0369150517
C       -1.8964631325   -3.4403529435    3.6100250943
C        1.4007154955   -1.4117926201    2.8253416686
C       -0.9041047720   -3.3777302992    4.5976840451
C       -1.2427235456   -5.7030261947    3.0378495280
C       -2.0710549209   -4.5858848248    2.8232696804
C        0.3485800079   -0.5186111927    3.3172241204
C       -0.4185660792   -0.5318434065    4.4236353826
O       -1.9391839921   -1.5880223555    6.3384557094
O        0.4474117193   -2.0146353344    6.5273897539
S       -0.6950288146   -1.8740288344    5.6085686831
Cl      -1.4191402594   -7.1597826984    2.0840025357
Cl      -3.3156209513   -4.6031958222    1.5925691758
H        4.2484248854   -3.6252329999    1.3189251350
H        3.0600570044   -1.9848847960   -0.1146524668
H        3.6620939096   -3.8133861400    3.7230008907
H        1.2775889427   -0.5739743534    0.8253130618
H        1.9268665594   -2.4022729672    4.6894619300
H        0.6660127184   -4.4803575363    5.5896449607
H        0.3683812676   -6.5095538493    4.2098811401
H       -2.5484908728   -2.5881554983    3.4441828607
H        0.1412864267    0.3219394367    2.6626947333
H       -1.0366739063    0.3280664906    4.6336439918
29   

C        2.4745839827   -3.0687441368    0.1960151485
C        3.2869202255   -2.1549219911    0.8681619793
C        1.1476596538   -3.2354089964    0.5942752943
C        2.7752897848   -1.4186723338    1.9424313075
C        0.6346480529   -2.4991536445    1.6680052237
C       -0.3630709588   -3.5505177336    5.8165725669
C        0.0838951263   -4.8344075220    6.1365613493
C       -1.3061742258   -4.4104931728    3.7710087017
C        1.4434006004   -1.5927882359    2.3768946470
C       -1.0500732642   -3.3227616881    4.6195263358
C       -0.1506968074   -5.9149708519    5.2778124593
C       -0.8579166158   -5.7002549778    4.0808559161
C        1.0039482807   -0.7582949509    3.4965637351
C       -0.1472019334   -0.6230432418    4.1848405518
O       -2.3127491354   -1.6416312719    2.8825434991
O       -2.5232242883   -1.1545109853    5.2592967953
S       -1.6402239615   -1.6491597500    4.1922130852
Cl       0.4321691197   -7.5067174105    5.7137109541
Cl      -1.1892022260   -7.0154254167    2.9742225960
H        2.8683869759   -3.6395670956   -0.6376346006
H        4.3153581158   -2.0141954122    0.5550496725
H        0.5068894577   -3.9304665293    0.0631636494
H        3.4317993195   -0.7137034185    2.4401331867
H       -0.4045728892   -2.6437592535    1.9028610371
H       -0.1778336790   -2.7289821495    6.5031785037
H        0.6186136267   -5.0021663908    7.0640682788
H       -1.8675375071   -4.2607793078    2.8527084458
H        1.7612129405   -0.0578195877    3.8333891983
H       -0.2240037124    0.1910018489    4.8898404078
