27   

C        2.4205851990    1.0569224192   -0.4334440820
C        1.4067443409    0.2201043592   -0.8833351565
C        0.6206478395   -4.1150466749   -1.5067135348
C        2.2396419008    1.7973444404    0.7350526797
C        1.5952384577   -2.6943461989   -0.0816760992
C        0.4730904664   -2.8253622324   -0.8622485340
C        0.2370212942    0.1302982863   -0.1213873629
C        0.1112960466    0.9601297533    1.0311406006
C        1.8110997291   -4.6368102637   -1.0909777139
C       -0.7348448637   -1.9778032921   -1.0471709078
C       -2.1554979848   -0.1455516741   -0.1590643185
C       -2.1379913638    0.1293714076    1.3480925774
N        1.1088681795    1.7551409574    1.4470241710
N       -0.8476512617   -0.6884312340   -0.5096993687
O       -1.7234988655   -2.4605738505   -1.6018475186
O        2.4276006578   -3.7766763379   -0.2220255234
O       -1.0621658149    0.9969142899    1.7606118212
Br       2.5205364192   -6.3241064896   -1.6302587006
H        3.3504265154    1.1496670251   -0.9814834468
H        1.5252432721   -0.3399385309   -1.8057983953
H       -0.0840538444   -4.5802840655   -2.1891579577
H        3.0418032914    2.4415448572    1.0763329319
H        1.8083851606   -1.8725880720    0.5911716195
H       -2.9713337841   -0.8374189077   -0.3916523200
H       -2.3346075944    0.7824759242   -0.7119582359
H       -3.0922118773    0.5800143831    1.6378358178
H       -2.0471443176   -0.8214161128    1.8831611295
27   

C        2.4041117879    0.9643047803   -0.4186649533
C        1.3804862538    0.1270742252   -0.8436695812
C        0.6865660406   -4.0439027289   -1.6323715268
C        2.2274594401    1.7505550872    0.7193641964
C        1.4512520578   -2.7821613440    0.0481165459
C        0.4406688394   -2.8329804391   -0.8773501237
C        0.2018084604    0.0837614199   -0.0891329056
C        0.0854298902    0.9548188926    1.0340836375
C        1.8380300990   -4.5901837905   -1.1432831345
C       -0.7867114330   -2.0086418702   -1.0270931651
C       -2.1981665769   -0.1830564483   -0.0995712061
C       -2.1628019383    0.1438026801    1.3959832759
N        1.0923639673    1.7507112697    1.4254875749
N       -0.8946504182   -0.7354323840   -0.4519197227
O       -1.7945065342   -2.5112702930   -1.5253022508
O        2.3294066328   -3.8236230571   -0.1197397207
O       -1.0864959968    1.0301151969    1.7625071575
Br       2.6480261076   -6.1973568248   -1.7772434629
H        3.3384549537    1.0218992121   -0.9639491692
H        1.5013839296   -0.4648218556   -1.7455366166
H        0.0703057829   -4.4441249958   -2.4314068368
H        3.0373444926    2.3953412578    1.0407292177
H        1.5459809239   -2.0416700690    0.8341934574
H       -3.0154301957   -0.8841689538   -0.2964625482
H       -2.3869720873    0.7254526510   -0.6810077782
H       -3.1152001823    0.6005024152    1.6820758632
H       -2.0601883240   -0.7873138558    1.9624748655
27   

C        2.3728435090    0.9255500278   -0.4260130013
C        1.3434368994    0.0844198861   -0.8276436995
C        0.7626397880   -3.9206561664   -1.7683467243
C        2.2051152896    1.7379187078    0.6940849144
C        1.3265356065   -2.8657767764    0.1195690725
C        0.4210063895   -2.8098804713   -0.9054660756
C        0.1654759065    0.0630338355   -0.0688801193
C        0.0611948867    0.9582854176    1.0369984851
C        1.8796874246   -4.5021835403   -1.2408498693
C       -0.8359345832   -2.0217124363   -1.0067229410
C       -2.2386785825   -0.2055998590   -0.0404192905
C       -2.1798564002    0.1530003305    1.4462767312
N        1.0734266414    1.7588413012    1.4050327262
N       -0.9394324447   -0.7591657199   -0.4076710724
O       -1.8608175294   -2.5567581415   -1.4279679523
O        2.2509233985   -3.8585184826   -0.0897770166
O       -1.1036914550    1.0536138347    1.7738855606
Br       2.7905221869   -6.0059799554   -1.9823908383
H        3.3048805056    0.9657783862   -0.9768045457
H        1.4626734723   -0.5233121724   -1.7187891191
H        0.2314162515   -4.2352021343   -2.6609981207
H        3.0195302327    2.3861656161    0.9964771238
H        1.3101685655   -2.2307879828    0.9985176709
H       -3.0565115379   -0.9136152872   -0.2075884176
H       -2.4424352247    0.6900347763   -0.6366802745
H       -3.1299937717    0.6104092010    1.7386211675
H       -2.0613426741   -0.7649920953    2.0306367787
27   

C        2.3777587341    0.8459934403   -0.4005070531
C        1.3371324495    0.0043105165   -0.7699025511
C        0.8312682055   -3.8290466477   -1.7715639852
C        2.2205834074    1.7042372886    0.6856354860
C        1.1914135193   -3.0201275735    0.2780025072
C        0.3974508850   -2.8307478625   -0.8175879479
C        0.1564762626    0.0278870129   -0.0134858641
C        0.0661355380    0.9674797011    1.0570052052
C        1.9033712858   -4.4663466423   -1.2157309259
C       -0.8776963695   -2.0641840818   -0.8981090442
C       -2.2537053914   -0.2090635977    0.0360417966
C       -2.1820129028    0.2067488842    1.5064156865
N        1.0888288517    1.7689078348    1.3934227458
N       -0.9631611850   -0.7900949480   -0.3208981433
O       -1.9176971618   -2.6248877223   -1.2379990768
O        2.1511653854   -3.9712398223    0.0372165634
O       -1.0959395373    1.1093165071    1.7905860481
Br       2.9081174853   -5.8582195373   -2.0487418875
H        3.3105012922    0.8510454358   -0.9515250782
H        1.4533055245   -0.6344282044   -1.6389707948
H        0.3919497953   -4.0348662516   -2.7422098025
H        3.0436707476    2.3529976931    0.9623226799
H        1.0694112970   -2.5048277071    1.2244666161
H       -3.0809450010   -0.9130901999   -0.0978880192
H       -2.4524858257    0.6651261889   -0.5929052992
H       -3.1258461132    0.6848192446    1.7858114199
H       -2.0680960733   -0.6884475388    2.1258247621
27   

C        2.3788378078    0.7884533589   -0.4399470611
C        1.3176339599   -0.0420570314   -0.7745667139
C        0.8496644750   -3.6975222576   -1.7984234192
C        2.2519179322    1.6776638215    0.6247766613
C        1.0684362295   -3.1764234084    0.3602748619
C        0.3463587292   -2.8394739172   -0.7468406872
C        0.1467182728    0.0240226348   -0.0054936418
C        0.0890883610    0.9926550652    1.0417473493
C        1.8947572217   -4.3983322797   -1.2680578527
C       -0.9420306558   -2.0837557990   -0.7849409179
C       -2.2666015717   -0.1594426548    0.0830939546
C       -2.1676791776    0.2900985603    1.5411066407
N        1.1307302400    1.7832315196    1.3439866995
N       -0.9938615982   -0.7792330750   -0.2747972295
O       -2.0006725493   -2.6673462019   -1.0039991188
O        2.0561800693   -4.0788643424    0.0539197591
O       -1.0595800025    1.1766071561    1.7873162272
Br       2.9714401104   -5.6542139851   -2.2188916917
H        3.3046229264    0.7605079944   -1.0017797150
H        1.4120378554   -0.7035129320   -1.6286139717
H        0.4756541113   -3.7725134031   -2.8141178653
H        3.0906684337    2.3172819512    0.8742937210
H        0.8758764083   -2.7982807632    1.3582617051
H       -3.1137402818   -0.8437146334   -0.0256367417
H       -2.4515657932    0.7041252261   -0.5645039130
H       -3.0976320338    0.7950322491    1.8197544574
H       -2.0644426051   -0.5918527504    2.1810026186
27   

C        2.4317331224    0.6697342160   -0.5251786967
C        1.3359718368   -0.1267227395   -0.8312357550
C        0.8470669462   -3.5391802066   -1.8323119405
C        2.3487886586    1.5891159858    0.5183565644
C        0.9707426780   -3.3846212515    0.3945674313
C        0.2776698084   -2.8912907385   -0.6699280488
C        0.1761755082    0.0051777460   -0.0564490780
C        0.1655105817    0.9996066744    0.9686688176
C        1.8882139127   -4.2999873366   -1.3820302855
C       -1.0047449091   -2.1208092699   -0.6272724720
C       -2.2373639286   -0.0648795697    0.0458200203
C       -2.1182741437    0.4077838326    1.4943968062
N        1.2392013820    1.7562767818    1.2434843130
N       -0.9971072168   -0.7587476103   -0.2923755872
O       -2.0853172415   -2.7023094449   -0.6733534962
O        1.9898872723   -4.2065800385   -0.0187317199
O       -0.9681498295    1.2451742831    1.7204121534
Br       3.0347763115   -5.3537726383   -2.4844575539
H        3.3511058534    0.5918102851   -1.0925545944
H        1.3942756135   -0.8126125543   -1.6680300012
H        0.5184004267   -3.4457358613   -2.8619388311
H        3.2135746709    2.2015887194    0.7460008037
H        0.7397054834   -3.1707513050    1.4322397808
H       -3.1219478788   -0.7007734463   -0.0578876539
H       -2.3724288746    0.7943550325   -0.6195276645
H       -3.0226953310    0.9629092768    1.7613701396
H       -2.0582146063   -0.4650267391    2.1522617964
27   

C        2.1435135185    1.6624440875   -0.0403847075
C        1.4623052971    0.4806140807    0.2195035284
C        1.1624424820   -1.4963521170   -2.2025516298
C        1.4368737848    2.7914712154   -0.4495950676
C        2.0106590930   -2.8991593359   -0.6836494761
C        0.8692632937   -2.2134426087   -0.9767355599
C        0.0741320657    0.4541444336    0.0327660103
C       -0.5744831750    1.6674541094   -0.3460150604
C        2.4253091620   -1.8561687009   -2.5749361672
C       -0.3122911924   -2.0128148807   -0.0843297102
C       -2.0597305360   -0.4296227688    0.7344035959
C       -2.7043393723    0.5271338957   -0.2693940292
N        0.1078970645    2.7973416795   -0.5896913079
N       -0.7069928199   -0.7094501089    0.2600246914
O       -1.1123461569   -2.9198301643    0.1307817775
O        2.9628708611   -2.7186731229   -1.6559050184
O       -1.9497395210    1.7395344176   -0.4627874079
Br       3.3240032692   -1.2404249337   -4.1408356012
H        3.2190332379    1.7212622858    0.0742512262
H        2.0100662621   -0.3874729361    0.5654500874
H        0.5066499202   -0.8145507682   -2.7341381722
H        1.9835935102    3.7049767106   -0.6532041978
H        2.1579062277   -3.4922997989    0.2121580720
H       -2.0148301865    0.0376297101    1.7237818004
H       -2.6745730611   -1.3303863143    0.8236290205
H       -2.8091415505    0.0169153450   -1.2321666756
H       -3.7086113750    0.7838471600    0.0810485894
27   

C        2.0280425610    1.7463490375   -0.2637294382
C        1.3884175742    0.5370812459   -0.0259440411
C        0.9370098659   -1.2647371404   -2.4509682716
C        1.2721889320    2.8931490813   -0.4974211635
C        1.7751605004   -2.9532407808   -1.2477093795
C        0.6989997579   -2.1155184366   -1.2998871418
C       -0.0124197109    0.5028431047   -0.0586189468
C       -0.7073874237    1.7325416714   -0.2601800939
C        2.1000057519   -1.6940421361   -3.0221028262
C       -0.3403489719   -1.9698123172   -0.2406036901
C       -2.0522276035   -0.4764561074    0.7918381211
C       -2.8059255509    0.5548569288   -0.0499876724
N       -0.0641840619    2.8889835996   -0.4861185980
N       -0.7523836877   -0.6893418038    0.1618803350
O       -1.0294220677   -2.9255795242    0.1109736875
O        2.6299444302   -2.7300798096   -2.2987992117
O       -2.0869463377    1.7926106309   -0.2133391211
Br       2.8855768781   -0.9548798867   -4.5954825041
H        3.1092796520    1.8121815096   -0.2668741778
H        1.9782392704   -0.3481920404    0.1815945841
H        0.3108878090   -0.4526776667   -2.8062883363
H        1.7865020310    3.8283447438   -0.6866270013
H        1.9445864468   -3.6871705152   -0.4674122523
H       -1.9122377554   -0.1007642993    1.8108856512
H       -2.6464177411   -1.3933545239    0.8532278398
H       -3.0071043720    0.1302260799   -1.0385946074
H       -3.7700225670    0.7624072180    0.4240892469
27   

C        1.9159999385    2.2457267993    0.5018292314
C        1.4768047785    0.9290877863    0.5417869539
C        1.9281366441   -0.7110489932   -1.9444118554
C        1.0224881954    3.2618976348    0.1693626641
C        2.6322404356   -2.5340160297   -0.8506429574
C        1.5436619145   -1.7172730717   -0.9719578377
C        0.1414988160    0.6590749583    0.2130175316
C       -0.7156772809    1.7636842224   -0.0695529253
C        3.1922897789   -1.0258315787   -2.3526046203
C        0.3290972189   -1.8118124319   -0.1172267022
C       -1.8064564211   -0.7269084510    0.5726532732
C       -2.5583378026    0.2289188762   -0.3566705171
N       -0.2654783258    3.0280693556   -0.1006753167
N       -0.3920499970   -0.6564195741    0.2201750911
O       -0.1856667723   -2.9017984157    0.1307515879
O        3.6428873394   -2.1390434729   -1.6923693049
O       -2.0644975978    1.5815435124   -0.3068404822
Br       4.1946348270   -0.0564502647   -3.6545064603
H        2.9452227922    2.4954303820    0.7293975774
H        2.1660957814    0.1411513383    0.8243347894
H        1.3304965670    0.1214621012   -2.3015510859
H        1.3821906019    4.2839037521    0.1370536732
H        2.6962827941   -3.3760364089   -0.1698955722
H       -1.9440109182   -0.4245732485    1.6161198166
H       -2.2163629643   -1.7352027818    0.4580879461
H       -2.4786658703   -0.1370688907   -1.3851996380
H       -3.6184127600    0.2261520029   -0.0854402763
27   

C        2.1384993614    1.7555621385    0.3745935538
C        1.5006015635    0.5412805813    0.5915550438
C        2.0277329991   -1.6104627497   -1.4272993706
C        1.4553779667    2.7906190886   -0.2613916959
C        2.0959533606   -3.4443754315   -0.1382302824
C        1.3037925951   -2.3655411756   -0.4213422423
C        0.1866499736    0.3861700875    0.1316963704
C       -0.4539626068    1.5118121202   -0.4652697275
C        3.1790005175   -2.3010854783   -1.6769796617
C        0.0222769917   -2.1031460243    0.2842891723
C       -1.9768923239   -0.6321352611    0.4772102461
C       -2.4696835593    0.2028784459   -0.7079294217
N        0.1860436821    2.6750308107   -0.6641735904
N       -0.5396833616   -0.8185768470    0.3099667635
O       -0.6524201854   -3.0356222783    0.7230644259
O        3.2425970773   -3.4243434056   -0.8939478640
O       -1.7804890206    1.4606795949   -0.8485307141
Br       4.5099022112   -1.7855494383   -2.9429433434
H        3.1607847600    1.9116960867    0.6970274941
H        2.0210768425   -0.2587374087    1.1070546092
H        1.7184385901   -0.6927721627   -1.9169465798
H        1.9689267294    3.7304455137   -0.4284718265
H        1.8560401040   -4.2115283574    0.5902869066
H       -2.1766718243   -0.1082080770    1.4177762229
H       -2.5203292071   -1.5820128536    0.4982898459
H       -2.3396405665   -0.3736725918   -1.6293101051
H       -3.5401369757    0.3943566422   -0.5860902593
27   

C        2.0221006306    2.1082283220    0.6428278442
C        1.4922829287    0.8334606211    0.7948928501
C        2.2493530940   -1.2002695010   -1.2851564338
C        1.2524148318    3.1106427137    0.0545747947
C        2.2635820606   -3.2101070061   -0.2842429381
C        1.5226408873   -2.0611816056   -0.3701565069
C        0.1981279260    0.5890635357    0.3201591959
C       -0.5377565704    1.6827188281   -0.2239572500
C        3.3622100980   -1.8941501861   -1.6668038798
C        0.2394416862   -1.9101261312    0.3632556101
C       -1.8697596690   -0.6216765325    0.6224301974
C       -2.4365843312    0.2201000659   -0.5249811610
N       -0.0009802577    2.9053503423   -0.3622155636
N       -0.4229346413   -0.6778863026    0.4463180357
O       -0.3231616892   -2.8980220499    0.8392607729
O        3.3942794472   -3.1224711608   -1.0589953016
O       -1.8560630544    1.5363499217   -0.6113946675
Br       4.6792358121   -1.2578201399   -2.8918171889
H        3.0255094025    2.3369263816    0.9807636649
H        2.0769273334    0.0552302981    1.2741976006
H        1.9678303756   -0.2145697598   -1.6402422546
H        1.6816816535    4.0991893686   -0.0612184966
H        1.9982683090   -4.0757873157    0.3134683636
H       -2.1101374568   -0.1598867452    1.5857141425
H       -2.3284775835   -1.6153647512    0.5997201496
H       -2.2628053178   -0.3023353515   -1.4711326296
H       -3.5188860150    0.3152273835   -0.3944009885
27   

C        2.3260949223    1.8644504410   -0.5040666040
C        1.5161322346    0.8042773978   -0.8912454886
C        2.1969159816   -1.8992598542    0.2923177215
C        1.9070040712    2.7178087031    0.5162780968
C        1.3887264879   -3.6127286648   -0.9143624988
C        1.0961087892   -2.3214185667   -0.5555801647
C        0.3063742919    0.6128225389   -0.2160010366
C       -0.0700262741    1.5601918628    0.7808387198
C        3.0680848802   -2.9500860370    0.3459006052
C       -0.2114801005   -1.7240833468   -0.9375628832
C       -1.9945532672   -0.0903588197   -0.3852751681
C       -2.1659992770    0.3905587418    1.0596446536
N        0.7334300828    2.5736344726    1.1399956328
N       -0.5866863139   -0.4272709329   -0.5634556401
O       -1.0283310265   -2.3917337384   -1.5756158390
O        2.5983252358   -4.0032151572   -0.3945911763
O       -1.3020581798    1.4921102450    1.4035112532
Br       4.6959574188   -2.9690348318    1.3410155219
H        3.2782897639    2.0424117835   -0.9886997776
H        1.8206295387    0.1473484626   -1.6996284014
H        2.3157363968   -0.9645528627    0.8285671209
H        2.5518622201    3.5379499878    0.8102191502
H        0.7544026079   -4.2501699818   -1.5214069642
H       -2.6510522182   -0.9489425403   -0.5595234395
H       -2.2806203082    0.7013018644   -1.0854606182
H       -3.2069054563    0.6915564219    1.2128514822
H       -1.9600239985   -0.4417086939    1.7403864310
27   

C        2.3019160661    1.7874101006   -0.4851474811
C        1.4803859928    0.7256215197   -0.8408625013
C        2.1023759364   -1.9408476759    0.4000291749
C        1.8900175293    2.6780581008    0.5049760439
C        1.4925105914   -3.5225807487   -1.0722985548
C        1.0552101383   -2.3484953684   -0.5185140411
C        0.2649211486    0.5681085499   -0.1642332849
C       -0.1014907376    1.5521349702    0.8007257470
C        3.0787295767   -2.8926055717    0.3195754629
C       -0.2666874435   -1.7698734242   -0.8720753403
C       -2.0432529423   -0.1315194284   -0.2927992595
C       -2.2013941312    0.4052644515    1.1331277731
N        0.7126206260    2.5680224650    1.1282519093
N       -0.6381250771   -0.4788258120   -0.4729925012
O       -1.1103521121   -2.4572747123   -1.4506326085
O        2.7290870837   -3.8643630115   -0.5819210589
O       -1.3329217231    1.5172611694    1.4266735123
Br       4.6945248733   -2.8880778278    1.3341260378
H        3.2582417731    1.9371915829   -0.9712947146
H        1.7839730527    0.0433186422   -1.6279276677
H        2.1149164969   -1.0780176866    1.0575417379
H        2.5443693105    3.4990576145    0.7745786655
H        0.9410185363   -4.1079492241   -1.8004827188
H       -2.7034052784   -0.9943717049   -0.4271317101
H       -2.3340848839    0.6336410871   -1.0200499682
H       -3.2403293743    0.7146405565    1.2827290805
H       -1.9912509938   -0.4005507321    1.8436453089
27   

C        2.3613902693    1.4357371357   -0.3850501928
C        1.4558159675    0.4491332802   -0.7524835832
C        1.8660385640   -2.2521385934    0.4804299292
C        2.0319802576    2.3321453376    0.6300379881
C        1.3228314152   -3.6176222767   -1.2136926912
C        0.8356822240   -2.5612609668   -0.4937184315
C        0.2397917416    0.3687566714   -0.0619443498
C       -0.0365814344    1.3555819026    0.9298388269
C        2.8730601336   -3.1521631960    0.2789662747
C       -0.4657813573   -1.9123995073   -0.8005690969
C       -2.1152094081   -0.1628865216   -0.1553669803
C       -2.2070629709    0.3556070045    1.2824694824
N        0.8571922857    2.2988870528    1.2668783254
N       -0.7422103101   -0.6064900372   -0.3707508086
O       -1.3866784194   -2.5618310757   -1.2979353571
O        2.5624629630   -3.9937448425   -0.7574585308
O       -1.2563487577    1.3976521073    1.5775787777
Br       4.4828827950   -3.2373829640    1.2992355042
H        3.3210506293    1.5214965160   -0.8801325059
H        1.6990113793   -0.2355331665   -1.5579309796
H        1.8459389124   -1.4815679049    1.2442309038
H        2.7517872446    3.0930158744    0.9091013026
H        0.8042204615   -4.0926759874   -2.0396381622
H       -2.8403297752   -0.9711622888   -0.2929501336
H       -2.3626740033    0.6362821950   -0.8618836594
H       -3.2182132671    0.7349295928    1.4587347310
H       -2.0411164892   -0.4770644677    1.9733989551
27   

C        2.2930317879    1.6948287502   -0.3282305395
C        1.4879003493    0.6073029636   -0.6396413133
C        1.9260503173   -1.9064963131    0.9660627014
C        1.8240284858    2.6733636905    0.5457523823
C        1.8319544537   -3.2759625070   -0.8033629504
C        1.0768531548   -2.3677677302   -0.1165150068
C        0.2273714947    0.5127611150   -0.0343076558
C       -0.1916363119    1.5826089455    0.8111458125
C        3.0983973895   -2.5986502214    0.8644285259
C       -0.2577527185   -1.8825736840   -0.5610110395
C       -2.0730018702   -0.2098115771   -0.2155741275
C       -2.3063482770    0.4631290019    1.1391598713
N        0.6067167687    2.6238594036    1.0953877729
N       -0.6597018727   -0.5659724067   -0.2895859635
O       -1.1085647162   -2.6669856154   -0.9798521902
O        3.0617149202   -3.4420805522   -0.2151451172
O       -1.4574010464    1.6052000586    1.3643363935
Br       4.5810293221   -2.4194523053    2.0514544217
H        3.2817944658    1.7957171360   -0.7590585903
H        1.8435458236   -0.1408040199   -1.3393376010
H        1.6822540422   -1.1712410568    1.7261687496
H        2.4667504744    3.5133597928    0.7829093353
H        1.5090856257   -3.7890603257   -1.7028074476
H       -2.7287235783   -1.0819957882   -0.3002066895
H       -2.3244024049    0.4802959868   -1.0277889917
H       -3.3522630183    0.7783621487    1.2026981705
H       -2.1316705548   -0.2674302463    1.9353450179
27   

C        2.3540479622    1.3061159382    0.2688780800
C        1.4716038571    0.2931099673   -0.0819891889
C        1.1135530361   -1.9623487977    1.9464443533
C        1.8732738033    2.4555624495    0.8923515517
C        1.4097770378   -3.4085873868    0.2666026006
C        0.5313179284   -2.4659790496    0.7164593656
C        0.1146558673    0.4484371635    0.2328632423
C       -0.2973508880    1.6767277267    0.8306089148
C        2.2569613965   -2.6764640122    2.1602219363
C       -0.6277457944   -1.9230713458   -0.0486464584
C       -2.1848896509    0.0012572839   -0.3631266828
C       -2.5816159949    0.8913173048    0.8161684134
N        0.5768046970    2.6414362926    1.1581789131
N       -0.8588025713   -0.5384404811   -0.0768040723
O       -1.5308834224   -2.6584041054   -0.4430041028
O        2.4564483409   -3.5696704473    1.1405446045
O       -1.6298104138    1.9388537114    1.0852323245
Br       3.4201157583   -2.4594935104    3.6565508603
H        3.4134988133    1.2171225645    0.0613668516
H        1.8442275499   -0.5885412861   -0.5904405963
H        0.7173099292   -1.1812998367    2.5872850320
H        2.5756478210    3.2349188760    1.1647149887
H        1.3062447584   -3.9474756202   -0.6688655322
H       -2.9394985213   -0.7805783891   -0.4928575876
H       -2.1530904384    0.5905666938   -1.2855701353
H       -3.5572518272    1.3408562585    0.6079468570
H       -2.6866745610    0.2710334159    1.7119044867
27   

C        2.4112111679    1.2852151716   -0.1580816917
C        1.4717966511    0.3287921898   -0.5201718242
C        1.3676589571   -2.2397715193    1.2800165009
C        2.0526711938    2.3095546866    0.7158513407
C        1.5458415046   -3.2071001642   -0.7267317654
C        0.6610800771   -2.5118927374    0.0432518535
C        0.1874383049    0.4103239765    0.0332391934
C       -0.1065725819    1.5166943493    0.8851201102
C        2.5878354488   -2.8424184898    1.1753891390
C       -0.6336252736   -1.9108334344   -0.3984702757
C       -2.1807260667    0.0425970276   -0.2527183023
C       -2.3759513420    0.7143722135    1.1070991465
N        0.8200890322    2.4288169629    1.2182387183
N       -0.8359484627   -0.5271419486   -0.2656351806
O       -1.6230648122   -2.6072845595   -0.6105624752
O        2.7160599578   -3.4437828153   -0.0491227986
O       -1.3758746509    1.7108885103    1.3964017993
Br       3.9316073692   -2.8398509804    2.5293158272
H        3.4208105680    1.2491285435   -0.5489118567
H        1.7442197646   -0.4500606193   -1.2219760538
H        1.0007491301   -1.6779311598    2.1327899525
H        2.7986582750    3.0455716545    0.9926749064
H        1.3604518761   -3.5140135590   -1.7501608576
H       -2.9627921112   -0.7078908301   -0.4027318837
H       -2.2761742379    0.7821801038   -1.0546677923
H       -3.3644094087    1.1830025192    1.1316750332
H       -2.3517645057   -0.0505196324    1.8897905865
27   

C        2.3537689312    1.0151439063    0.2699962253
C        1.4916615002   -0.0451549706    0.5174723735
C        1.7716272035   -3.6239026806    0.5450105229
C        1.8955516067    2.1311603317   -0.4268923067
C        1.3593169734   -2.8847797976   -1.5242594599
C        0.8600787442   -2.8361563108   -0.2572634838
C        0.1796445418    0.0325151819    0.0322939190
C       -0.2163501734    1.2298874326   -0.6380448636
C        2.7864773635   -4.0081700176   -0.2844390670
C       -0.5006478667   -2.3680094688    0.1542464646
C       -2.1537890144   -0.5155684589    0.3408928207
C       -2.4417291809    0.3244687646   -0.9030513877
N        0.6377400607    2.2400333713   -0.8639219050
N       -0.7779618062   -0.9955427055    0.2370359570
O       -1.4402620728   -3.1560445216    0.2176174318
O        2.5592100226   -3.5513572969   -1.5561770920
O       -1.5153675376    1.4144699210   -1.0728910725
Br       4.3014167550   -5.0422817432    0.2409049704
H        3.3790681020    0.9906295362    0.6184133363
H        1.8433507005   -0.8933380639    1.0927727656
H        1.6759899743   -3.8671428131    1.5978982830
H        2.5815664504    2.9492237286   -0.6138564773
H        0.8679150520   -2.4672458125   -2.3960805582
H       -2.2634344878    0.0975829264    1.2415800917
H       -2.8834989537   -1.3283566347    0.4080052802
H       -2.4004276363   -0.3191896769   -1.7874663648
H       -3.4571661999    0.7260457563   -0.8320572641
27   

C        2.2881839671    1.0828124774    0.2173453386
C        1.4464524414    0.0104465071    0.4807160130
C        1.7058297949   -3.8049312499    0.4871465973
C        1.8134389970    2.1722593419   -0.5093697912
C        1.3704276319   -2.7278819763   -1.4382702664
C        0.8732864465   -2.8208125590   -0.1714222059
C        0.1370127863    0.0475618901   -0.0202377161
C       -0.2774449864    1.2210193842   -0.7199148728
C        2.6909591228   -4.1415460443   -0.3965231735
C       -0.4637155455   -2.3542933068    0.3054128386
C       -2.1906436502   -0.5580030184    0.2655007103
C       -2.4748118998    0.2563886945   -0.9969269781
N        0.5578107273    2.2436299846   -0.9607669564
N       -0.7994927822   -0.9972599972    0.2035934494
O       -1.3606336980   -3.1623726954    0.5332638816
O        2.5120603165   -3.4764723983   -1.5803607990
O       -1.5758442960    1.3684257445   -1.1688446905
Br       4.1078468660   -5.3708032017   -0.0473436370
H        3.3100587676    1.0881821379    0.5768719633
H        1.8133532660   -0.8154922921    1.0798964328
H        1.5791380286   -4.2009380710    1.4892777842
H        2.4842435483    3.0001276246   -0.7081877336
H        0.9133636742   -2.1548188822   -2.2374825242
H       -2.3424537692    0.0626205520    1.1549509139
H       -2.8943704572   -1.3943756643    0.3198240632
H       -2.3981254224   -0.3990608168   -1.8701170788
H       -3.5019489609    0.6311588551   -0.9527086133
27   

C        2.2465128069    1.2018933961    0.2142909556
C        1.4588384788    0.0943271566    0.4982744341
C        1.7874612340   -3.8851788101    0.4059221577
C        1.7164776210    2.2554611367   -0.5273604074
C        1.5425922255   -2.5238128568   -1.3466547309
C        0.9999725157   -2.7914229945   -0.1217265165
C        0.1475062792    0.0606481024    0.0023425716
C       -0.3271425844    1.2010852672   -0.7125393724
C        2.7892039525   -4.1191887953   -0.4919956846
C       -0.3251580783   -2.3569610362    0.4030609338
C       -2.1451021795   -0.6578857984    0.3109836731
C       -2.4749627519    0.1242039473   -0.9616400864
N        0.4569601437    2.2584920467   -0.9741511303
N       -0.7338750493   -1.0254334801    0.2488862848
O       -1.1619095309   -3.1917576508    0.7413747121
O        2.6659756496   -3.2805821794   -1.5680872167
O       -1.6334945138    1.2771268660   -1.1556403136
Br       4.1584086831   -5.4332532282   -0.2938893027
H        3.2682606999    1.2626911651    0.5692428050
H        1.8663852890   -0.7054108217    1.1074433503
H        1.6178633990   -4.4191926396    1.3352125668
H        2.3456206177    3.1115311877   -0.7423979018
H        1.1305953172   -1.8221009407   -2.0636428995
H       -2.3266498351   -0.0348883864    1.1931459892
H       -2.8022957195   -1.5306645137    0.3763337934
H       -2.3696573170   -0.5389243127   -1.8260430520
H       -3.5193645140    0.4478477321   -0.9178821715
27   

C        2.2356150342    1.2697551396    0.2619331606
C        1.4660375652    0.1568246783    0.5743731192
C        1.7346847662   -3.9851130093    0.3878199867
C        1.6946425046    2.2864879400   -0.5231130375
C        1.6851612884   -2.3900706727   -1.1768883568
C        1.0395456683   -2.7889220987   -0.0376400848
C        0.1636054077    0.0818916242    0.0626831520
C       -0.3257945650    1.1865856055   -0.6959061315
C        2.7775205189   -4.1645239158   -0.4750387583
C       -0.2665460633   -2.3354370951    0.5099079826
C       -2.1135396420   -0.6706034399    0.3809786119
C       -2.4508416463    0.0589323941   -0.9214499447
N        0.4411373839    2.2490469698   -0.9856347086
N       -0.6958069592   -1.0130469700    0.3349503286
O       -1.0741326823   -3.1634821626    0.9297254437
O        2.7736180280   -3.1857724192   -1.4337431217
O       -1.6285219327    1.2189916254   -1.1551473285
Br       4.0524580706   -5.5809328643   -0.3789826360
H        3.2512669238    1.3636700450    0.6270542513
H        1.8768696579   -0.6186511771    1.2127693601
H        1.4754894033   -4.6211079629    1.2282322314
H        2.3096286245    3.1468266027   -0.7609064001
H        1.3719175156   -1.5703783459   -1.8140794205
H       -2.3105156268   -0.0200809837    1.2395974904
H       -2.7535077547   -1.5536215619    0.4747990040
H       -2.3296941319   -0.6336711966   -1.7604110794
H       -3.5010950536    0.3650419129   -0.8947262011
27   

C        2.2576263034    1.3146938109    0.2611807730
C        1.4983569009    0.2007135419    0.5957633823
C        1.6493915551   -4.0827440435    0.2384378268
C        1.7080020765    2.3093614898   -0.5469344127
C        1.8085125264   -2.3033146436   -1.1065353859
C        1.0554591213   -2.7994676703   -0.0735383783
C        0.1995959590    0.1037447457    0.0816531512
C       -0.3016721318    1.1873811097   -0.6983215754
C        2.7287655295   -4.2315109300   -0.5839491684
C       -0.2168325830   -2.3180848574    0.5247686698
C       -2.0649356536   -0.6561779637    0.4361572262
C       -2.4218716820    0.0406208302   -0.8798384183
N        0.4555326745    2.2502800364   -1.0104892544
N       -0.6466525291   -0.9927108415    0.3758929405
O       -0.9953176843   -3.1315269204    1.0235448904
O        2.8506195856   -3.1441244837   -1.4082243024
O       -1.6061407656    1.1971497423   -1.1543309178
Br       3.8981750472   -5.7392220952   -0.6010791332
H        3.2715524624    1.4269594084    0.6258723319
H        1.9107954975   -0.5621078405    1.2486942275
H        1.3002084080   -4.7935436248    0.9808980210
H        2.3148244996    3.1703092293   -0.8028132890
H        1.6070696702   -1.3844473138   -1.6453524871
H       -2.2530186609    0.0134547664    1.2819240951
H       -2.6985773662   -1.5401763658    0.5598121069
H       -2.3098200701   -0.6723136985   -1.7029959491
H       -3.4727830154    0.3439421144   -0.8471637861
27   

C        2.2440892363    1.3785146690    0.3183037457
C        1.4977873968    0.2603998359    0.6698283703
C        1.5363100917   -4.1564192811    0.0701886484
C        1.6938117045    2.3392178503   -0.5307027691
C        1.9465048221   -2.2315432402   -0.9905979282
C        1.0577642164   -2.8005211823   -0.1117688077
C        0.2147880386    0.1259484777    0.1291011513
C       -0.2928002664    1.1786228135   -0.6874617237
C        2.6694419857   -4.2855133699   -0.6791545509
C       -0.1921616792   -2.3076855345    0.5259105968
C       -2.0355578260   -0.6444562725    0.5010866516
C       -2.4033185236    0.0058794175   -0.8365401839
N        0.4519317145    2.2449379755   -1.0167328927
N       -0.6158833661   -0.9744617317    0.4388674525
O       -0.9485438457   -3.1192320802    1.0621617301
O        2.9419052158   -3.1129438062   -1.3316058140
O       -1.5920316380    1.1541987628   -1.1587130159
Br       3.7254834611   -5.8692401608   -0.8121572119
H        3.2479879388    1.5205433498    0.6998347607
H        1.9047007772   -0.4807925877    1.3507877075
H        1.0783625445   -4.9258399008    0.6842399134
H        2.2904020298    3.2030086197   -0.8006473871
H        1.8799099570   -1.2328285300   -1.4046316962
H       -2.2206663120    0.0523157509    1.3252635263
H       -2.6639998484   -1.5264608280    0.6605740039
H       -2.2957336761   -0.7353511386   -1.6350148166
H       -3.4548530640    0.3075063048   -0.8072665943
27   

C        2.2546797235    1.4609708697    0.3620600754
C        1.5233362679    0.3455324476    0.7531672675
C        1.4443708136   -4.2052458486   -0.0272939440
C        1.7096346666    2.3592436978   -0.5567864291
C        2.1135462997   -2.2182404607   -0.7984640626
C        1.0918125494   -2.7991277640   -0.0861505554
C        0.2645902584    0.1499242432    0.1790934545
C       -0.2448255463    1.1453871860   -0.7048412740
C        2.6243190969   -4.3549208077   -0.6949762030
C       -0.1399917539   -2.2859837211    0.5757855766
C       -1.9723321635   -0.6203265703    0.5775200638
C       -2.3433488943   -0.0570475460   -0.7993482498
N        0.4853832167    2.2089559002   -1.0726760386
N       -0.5507512754   -0.9459676636    0.5316051379
O       -0.8783715200   -3.0868508506    1.1523681256
O        3.0522949090   -3.1466646913   -1.1736788221
O       -1.5343472862    1.0696322943   -1.1976380205
Br       3.5515393812   -6.0053723418   -0.9347082840
H        3.2423584174    1.6492671481    0.7651016314
H        1.9208573684   -0.3501979346    1.4856861981
H        0.8754212430   -4.9935671216    0.4562689777
H        2.2943454137    3.2209880225   -0.8575011937
H        2.1911704818   -1.1771396672   -1.0809856211
H       -2.1594803869    0.1259735757    1.3565816832
H       -2.5969983158   -1.4925822137    0.7951041330
H       -2.2361985020   -0.8477432693   -1.5489913890
H       -3.3954892843    0.2438584989   -0.7879135025
