12   
Generated by ForceBalance from scan.xyz: Frame 1 of 24
C       -0.1833761821    0.8973701385   -0.7593988776
C       -0.9355825388    2.5711480570    0.7840034226
C        1.8856747723    1.1568588804   -1.9473566489
O       -1.1195293113    1.3369303097   -0.0243887202
O        0.9416185063    1.4915584274   -0.8506795606
H       -0.4098991442   -0.0074410383   -1.3296333769
H       -0.1481119485    2.3862913647    1.5138428964
H       -1.9014782518    2.7189491140    1.2579054137
H       -0.6799685103    3.3890499973    0.1111912269
H        1.7998019185    1.9660376500   -2.6704372517
H        2.8691140152    1.1351638563   -1.4842050790
H        1.6239879192    0.1906576047   -2.3802684678
12   
Generated by ForceBalance from scan.xyz: Frame 2 of 24
C       -0.1505109936    0.8268851803   -0.7037321772
C       -0.9056814242    2.5762705274    0.7556979513
C        1.8733863616    1.1874475123   -1.9447899393
O       -1.1051391418    1.3373462164   -0.0429234515
O        1.0120350896    1.3545230372   -0.7432844220
H       -0.3988564479   -0.0679256836   -1.2818038461
H       -0.2371611820    2.3400608374    1.5827666607
H       -1.9043926624    2.8267579156    1.1010834288
H       -0.4896455413    3.3454244337    0.1062017016
H        1.6604071397    2.0416634093   -2.5851722741
H        2.8929159204    1.2083802463   -1.5691069090
H        1.6463001064    0.2389146841   -2.4338513169
12   
Generated by ForceBalance from scan.xyz: Frame 3 of 24
C       -0.1708590134    0.7372536298   -0.6447593165
C       -0.8915979922    2.5866207797    0.7099829270
C        1.8133278996    1.2108926146   -1.9259488463
O       -1.1225609028    1.3308771546   -0.0536186426
O        1.0242872834    1.1932532614   -0.6610318426
H       -0.4526695630   -0.1620463008   -1.2015849945
H       -0.3368522179    2.3300933388    1.6117129654
H       -1.8930289621    2.9396842027    0.9382361128
H       -0.3405172925    3.2843770139    0.0812970445
H        1.5174246362    2.1167947215   -2.4520674784
H        2.8511943675    1.2466350602   -1.6066404811
H        1.6039575008    0.3093428828   -2.5043374340
12   
Generated by ForceBalance from scan.xyz: Frame 4 of 24
C       -0.1353150728    0.5980402212   -0.6310461919
C       -0.8238734435    2.5356340042    0.6295063504
C        1.7897841481    1.2417274833   -1.9591131520
O       -1.0705895830    1.2517711040   -0.0801555462
O        1.0806621497    1.0018407910   -0.6654670020
H       -0.4483900928   -0.3229459491   -1.1346458661
H       -0.4872105757    2.2823013266    1.6342875028
H       -1.7981526854    3.0163749095    0.6427597312
H       -0.0791129087    3.1146681614    0.0875551446
H        1.4036694462    2.1801912374   -2.3534388129
H        2.8376081026    1.3154856658   -1.6823846437
H        1.6125420111    0.4031656844   -2.6344953964
12   
Generated by ForceBalance from scan.xyz: Frame 5 of 24
C       -0.2568817673    0.4645673617   -0.6120678938
C       -1.0476460505    2.4369977081    0.5489231974
C        1.5171887238    1.4652616167   -2.0021876412
O       -1.2067338391    1.0841678891   -0.0459378712
O        0.9312796525    0.9296012247   -0.7345455242
H       -0.5268813508   -0.5246253528   -0.9974558187
H       -1.5316140147    2.3644736721    1.5204245247
H       -1.5918942707    3.1114027636   -0.1111938251
H        0.0072811527    2.6880494476    0.6293048239
H        0.9861556196    2.3858271124   -2.2399232078
H        2.5580109204    1.6492345411   -1.7519665349
H        1.4195725645    0.7114615799   -2.7838073067
12   
Generated by ForceBalance from scan.xyz: Frame 6 of 24
C       -0.0971030429    0.4683542846   -0.4727025109
C       -0.6960012664    2.5685755000    0.5583212434
C        1.6028093401    1.5541036509   -1.9617562324
O       -0.9612277316    1.1708774353    0.1361604965
O        1.0942023074    0.8484165563   -0.7460240930
H       -0.4156879755   -0.5575302560   -0.6832825765
H       -1.2671301171    2.6836447635    1.4761255887
H       -1.0864918440    3.2120463022   -0.2296520175
H        0.3720844786    2.7050075332    0.7185116304
H        1.0744022556    2.5018264256   -2.0560141181
H        2.6591220716    1.6993894027   -1.7545718162
H        1.4458088003    0.8981321057   -2.8169707711
12   
Generated by ForceBalance from scan.xyz: Frame 7 of 24
C       -0.0570896891    0.3754858167   -0.4612802677
C       -0.5531228890    2.5415263690    0.4928162059
C        1.6005291270    1.5449949219   -1.9408680234
O       -0.8708722828    1.1345555780    0.1532652223
O        1.1336811500    0.6763422773   -0.8191331341
H       -0.3956877466   -0.6598043477   -0.5603197068
H       -1.1369882840    2.7371689321    1.3886340459
H       -0.8935925397    3.1600111848   -0.3372009032
H        0.5165196153    2.6367240201    0.6759614075
H        1.0794768355    2.5005894003   -1.9078368215
H        2.6649005151    1.6612475575   -1.7570177146
H        1.4076644997    0.9950833806   -2.8604907321
12   
Generated by ForceBalance from scan.xyz: Frame 8 of 24
C       -0.0320724125    0.3189655061   -0.4609129183
C       -0.5255726114    2.5310047585    0.4187778400
C        1.5898640673    1.5713779938   -1.9074011871
O       -0.8297090963    1.1102379316    0.1371416383
O        1.1425425575    0.5697686595   -0.8968405752
H       -0.3576654954   -0.7241932769   -0.4667672299
H       -1.1485795411    2.7679594769    1.2775129721
H       -0.8249848792    3.1156325071   -0.4505577552
H        0.5338977245    2.6330656713    0.6525831031
H        1.1375535297    2.5421618841   -1.7167589868
H        2.6692592138    1.6026464330   -1.7868129462
H        1.3060643731    1.1635237641   -2.8760761483
12   
Generated by ForceBalance from scan.xyz: Frame 9 of 24
C        0.1355989074    0.1992634673   -0.5042460692
C       -0.5720827558    2.4371137407    0.1668872913
C        1.6693978358    1.6049938886   -1.8609053622
O       -0.7480236412    0.9777755779   -0.0202548053
O        1.2980408539    0.4825003553   -0.9507295531
H       -0.1006499575   -0.8628763072   -0.4120423693
H       -1.3837326710    2.7123225955    0.8350940173
H       -0.6782337147    2.9308028346   -0.7975440143
H        0.3985971194    2.6158811298    0.6282564449
H        1.9492401115    2.4718507552   -1.2656437648
H        2.5215347657    1.2117163369   -2.4088377128
H        0.8297371162    1.8049189913   -2.5244495785
12   
Generated by ForceBalance from scan.xyz: Frame 10 of 24
C       -0.0000213364    0.2858844981   -0.2914405444
C       -0.6390624773    2.5821853557    0.3353828310
C        1.4450371173    1.6598755126   -1.7728043134
O       -0.8064213871    1.1120485477    0.2462247669
O        1.0823672162    0.4853526670   -0.9357702062
H       -0.2385280197   -0.7621279492   -0.1018087335
H       -1.4202751104    2.8863584808    1.0268658783
H       -0.7990537880    3.0202578516   -0.6476502263
H        0.3484703360    2.7978244699    0.7407147808
H        1.8007635918    2.4657189908   -1.1344035613
H        2.2449227345    1.2804987316   -2.4030906706
H        0.5778748309    1.9421959666   -2.3672390559
12   
Generated by ForceBalance from scan.xyz: Frame 11 of 24
C        0.0270161316    0.2862648652   -0.2468717387
C       -0.6177650769    2.6060764113    0.3581343198
C        1.4460791039    1.6666691769   -1.7553266131
O       -0.7224602010    1.1272298209    0.3475211671
O        1.0174014788    0.4434711015   -1.0327252541
H       -0.1980199914   -0.7551008650   -0.0118903373
H       -1.4304389707    2.9125410104    1.0112065624
H       -0.7649260150    2.9881163286   -0.6494557888
H        0.3464863032    2.8819094781    0.7819518404
H        1.7900059949    2.4128855940   -1.0429235268
H        2.2661106006    1.3170563478   -2.3767456254
H        0.6145911262    2.0129893398   -2.3668330025
12   
Generated by ForceBalance from scan.xyz: Frame 12 of 24
C        0.0417946640    0.3058270837   -0.2432388275
C       -0.6849881087    2.6296920938    0.2810277328
C        1.5183950410    1.6929763013   -1.6923108030
O       -0.6845884848    1.1501913613    0.3745492633
O        0.9675409613    0.4476114194   -1.1064094471
H       -0.1679792851   -0.7329069646    0.0155472732
H       -1.3354909959    2.9339932427    1.0966922439
H       -1.1108597304    2.9125716392   -0.6801169921
H        0.3240023716    3.0074722050    0.4276985682
H        2.1034892697    2.2020443001   -0.9283136524
H        2.1583359257    1.3333211321   -2.4936700300
H        0.7090951797    2.3031444920   -2.0860457701
12   
Generated by ForceBalance from scan.xyz: Frame 13 of 24
C        0.0279647660    0.3119497357   -0.2173640354
C       -0.6864406043    2.6343614670    0.2959546359
C        1.4907002346    1.6804551003   -1.6930652507
O       -0.6113320150    1.1649546429    0.4795222160
O        0.8180691655    0.4501989150   -1.2073321425
H       -0.1639786541   -0.7251532674    0.0617023081
H       -1.3674298230    2.9525042722    1.0807335145
H       -1.1040708763    2.8399096150   -0.6882812195
H        0.3002699791    3.0688788831    0.4389408542
H        2.0670487074    2.1043585593   -0.8725526103
H        2.1456892886    1.3151816854   -2.4794811542
H        0.7505170121    2.3692085733   -2.0937018976
12   
Generated by ForceBalance from scan.xyz: Frame 14 of 24
C        0.0736975177    0.2890419914   -0.1828607319
C       -0.6639563763    2.5850179079    0.3258333663
C        1.5079840709    1.6504820811   -1.6859186888
O       -0.5100330272    1.1315731523    0.5729615865
O        0.7208379772    0.4597976037   -1.2685031621
H       -0.0709413099   -0.7523349150    0.1100420661
H       -1.3780264707    2.8982208193    1.0827819692
H       -1.0666059226    2.7287873293   -0.6757732850
H        0.2961211732    3.0758138429    0.4715563929
H        2.0784672728    2.0058220818   -0.8295810937
H        2.1644937097    1.2583169441   -2.4580663294
H        0.8380270973    2.4059636043   -2.0907531329
12   
Generated by ForceBalance from scan.xyz: Frame 15 of 24
C        0.2914915623    0.2053053352   -0.3114451019
C       -0.4889589394    2.4446289484    0.2679995167
C        1.6014139216    1.5879937441   -1.9056162466
O       -0.2379818879    1.0069134764    0.5241684402
O        0.7386853235    0.4462530644   -1.4831199593
H        0.2448586912   -0.8457898434   -0.0190620615
H       -1.1775393027    2.7321926998    1.0580468286
H       -0.9475735521    2.5497571139   -0.7146845483
H        0.4509832347    2.9868814199    0.3551797182
H        2.2459259801    1.8617807480   -1.0719865203
H        2.1759152438    1.1757368094   -2.7308581895
H        0.9709364679    2.4109347936   -2.2363056798
12   
Generated by ForceBalance from scan.xyz: Frame 16 of 24
C        0.2411459907    0.3315147799   -0.1510397525
C       -0.7437202045    2.5240044030    0.2144030467
C        1.6483456560    1.5607119392   -1.8244901634
O       -0.4015281885    1.1359299194    0.5972193777
O        0.6790527007    0.5390548825   -1.3333316733
H        0.2904720817   -0.6914155772    0.2302809497
H       -1.6196341101    2.7541571542    0.8156652996
H       -0.9693662304    2.5585446537   -0.8511714994
H        0.0945914471    3.1630942811    0.4900471073
H        2.6311076846    1.2135168669   -1.5100811782
H        1.5392130441    1.5287318945   -2.9050826628
H        1.4085323606    2.5444769752   -1.4269389464
12   
Generated by ForceBalance from scan.xyz: Frame 17 of 24
C        0.2386365381    0.3892512133   -0.1290940415
C       -0.8184815214    2.5325758004    0.2406796428
C        1.6830861419    1.5353664300   -1.8333970219
O       -0.4192486593    1.1616362903    0.6368719809
O        0.5964808900    0.6422663795   -1.3309409998
H        0.3805318845   -0.6208580636    0.2656567284
H       -1.7290859216    2.7177418337    0.8047521670
H       -0.9931049889    2.5620646385   -0.8342047089
H       -0.0214468559    3.2058017438    0.5551216540
H        2.6243733094    1.0394017321   -1.6025238862
H        1.5067765525    1.5860001915   -2.9041695520
H        1.6005300637    2.5149077393   -1.3649624453
12   
Generated by ForceBalance from scan.xyz: Frame 18 of 24
C        0.2453836083    0.4845478681   -0.0940163164
C       -0.8868352140    2.5641632645    0.3812720920
C        1.7035845539    1.5452791059   -1.8359502533
O       -0.4048623158    1.2034764742    0.7253043898
O        0.5152051185    0.8126477789   -1.3014546170
H        0.4985131720   -0.5121183391    0.2812987190
H       -1.8155820242    2.6672709741    0.9367827863
H       -1.0404499683    2.6359024675   -0.6940594302
H       -0.1335190460    3.2630656485    0.7438871704
H        2.5857648835    0.9385923812   -1.6358780130
H        1.5024871760    1.6243194856   -2.9004418916
H        1.7485207195    2.5231770665   -1.3584846044
12   
Generated by ForceBalance from scan.xyz: Frame 19 of 24
C        0.3772865372    0.4957967953    0.0533734537
C       -0.8806710745    2.4563112292    0.7141153496
C        1.7500541316    1.4545748713   -1.7572953896
O       -0.2302297465    1.1423111696    0.9585373428
O        0.4980410403    0.8971436984   -1.1579875355
H        0.8012175451   -0.4582935292    0.3847915847
H       -1.8568397165    2.3677987876    1.1858442807
H       -0.9526171275    2.6441655558   -0.3545115106
H       -0.2604226387    3.1886893873    1.2295266249
H        2.5623444144    0.7432291441   -1.6062379996
H        1.5081112268    1.5676425492   -2.8101175215
H        1.9386325046    2.4135596279   -1.2769761220
12   
Generated by ForceBalance from scan.xyz: Frame 20 of 24
C        0.3954309582    0.6243294700   -0.0626022529
C       -0.9592780530    2.5360563457    0.5079910337
C        1.7180404577    1.2256427991   -2.0056491044
O       -0.1962977848    1.3007388522    0.8306499042
O        0.4277895920    0.9648543773   -1.2977649992
H        0.9359371774   -0.2548266925    0.3045063637
H       -1.9498335359    2.2203156072    0.1821638852
H       -0.4379576434    3.0947950515   -0.2664468585
H       -1.0000416633    3.0710581768    1.4528007313
H        2.4277997281    0.4286291578   -1.7781775502
H        1.4509649422    1.2325478498   -3.0585324938
H        2.0654041470    2.1996670624   -1.6652271061
12   
Generated by ForceBalance from scan.xyz: Frame 21 of 24
C        0.4035806491    0.7655526717   -0.0347887310
C       -1.0420655403    2.5867230008    0.5723140168
C        1.6863743208    1.1910147580   -2.0287588249
O       -0.2253765954    1.3812982398    0.8778029458
O        0.4138882180    1.1575873454   -1.2524988758
H        0.9970075264   -0.0910225134    0.3003720573
H       -1.9249769439    2.2598443723    0.0243322199
H       -0.4392718280    3.2817775484   -0.0102063797
H       -1.2973289573    2.9823315984    1.5510656511
H        2.3022589567    0.3293177058   -1.7654594371
H        1.3786384004    1.1567368627   -3.0701652542
H        2.1673524720    2.1345226696   -1.7768230423
12   
Generated by ForceBalance from scan.xyz: Frame 22 of 24
C        0.4588081485    0.8566207789   -0.0591714185
C       -1.0873717489    2.5750587808    0.5864801538
C        1.7068212385    1.1652180090   -2.0873776980
O       -0.2359929603    1.3864497303    0.8601142256
O        0.4885910768    1.3227515306   -1.2480004480
H        1.0737129285    0.0037711534    0.2426038521
H       -1.8947054054    2.2658621467   -0.0763672474
H       -0.4683296726    3.3498877824    0.1359740251
H       -1.4558696722    2.8623671249    1.5668485985
H        2.2355025108    0.2535646583   -1.8048039482
H        1.3430132364    1.1144949436   -3.1101617695
H        2.3052544054    2.0580329283   -1.9144798185
12   
Generated by ForceBalance from scan.xyz: Frame 23 of 24
C        0.5108287400    0.9312400594   -0.0296058603
C       -1.1157796266    2.5702466145    0.6163354894
C        1.7109176718    1.1341649607   -2.0979765789
O       -0.2546588111    1.3859582307    0.8743276552
O        0.5888092947    1.4681247130   -1.1840231074
H        1.1186277207    0.0668956935    0.2508447097
H       -1.8268614796    2.3103836704   -0.1671064976
H       -0.4776091247    3.4033325639    0.3236162258
H       -1.6076120977    2.7474785595    1.5682138328
H        2.1838782252    0.2041497343   -1.7804587634
H        1.2612279415    1.0388516844   -3.0832821973
H        2.3955523908    1.9790569706   -2.0487539631
12   
Generated by ForceBalance from scan.xyz: Frame 24 of 24
C        0.5542683032    0.9576584380    0.0196175598
C       -1.1237553823    2.5497303217    0.6487644561
C        1.7109440512    1.1004189200   -2.0795480692
O       -0.2865774501    1.3446461496    0.8876477441
O        0.7196567536    1.5763714244   -1.0826588879
H        1.1272608624    0.0626605894    0.2751187201
H       -1.7101976894    2.3880174024   -0.2550513281
H       -0.4631823626    3.4110287554    0.5539652276
H       -1.7493175966    2.6127989595    1.5342286518
H        2.2078521077    0.2026172483   -1.7108897312
H        1.1427996106    0.9051006260   -2.9866714108
H        2.4095420950    1.9236840163   -2.2140219305
