22   
Generated by ForceBalance from scan.xyz: Frame 1 of 24
C        1.7351974026   -0.8720303655   -0.3124911419
C        2.7221854494   -1.5725482211    1.7847610888
C        0.6070269537   -0.4191424588    0.3688816824
C        1.5957863993   -1.1228063616    2.4760931725
C        2.8048848182   -1.4615030365    0.3880893576
C        0.5446763615   -0.5497726958    1.7598511188
C        4.9930307924   -2.7319733083   -3.4505692789
C        6.2406373951   -2.8159655570   -1.2672494254
N        3.9948238758   -1.9518072603   -0.2011550846
N        3.9597659895   -1.9789211150   -1.4718852088
N        5.1004122889   -2.3591374089   -2.0504349203
Br      -1.0082187603    0.0794471422    2.6968885345
H        1.7955183471   -0.7687870491   -1.3906177612
H        3.5541492366   -2.0207190017    2.3206906996
H       -0.2155056558    0.0367299904   -0.1732707747
H        1.5391257828   -1.2157960587    3.5557725294
H        4.8819054851   -3.8187878020   -3.5736048153
H        5.8872071890   -2.4079373340   -3.9918227013
H        4.1170253974   -2.2370859142   -3.8713651936
H        6.3968972618   -2.1385328735   -0.4268016291
H        7.1222805625   -2.8128439260   -1.9119423354
H        6.0770944442   -3.8252873921   -0.8651622937
22   
Generated by ForceBalance from scan.xyz: Frame 2 of 24
C        1.7256626756   -0.8876558140   -0.3436235615
C        2.7045382590   -1.5317972476    1.7757055633
C        0.5960073666   -0.4164467677    0.3225823886
C        1.5765975788   -1.0628950054    2.4516553553
C        2.7928359818   -1.4579456494    0.3767458612
C        0.5285581328   -0.5088273662    1.7164112646
C        5.0108259407   -2.7284556359   -3.4502442955
C        6.2592564191   -2.8475049719   -1.2749404998
N        3.9842567455   -1.9659038265   -0.1936474124
N        3.9631736459   -2.0066923716   -1.4640201886
N        5.0976905622   -2.4097888079   -2.0368138249
Br      -1.0276886374    0.1459142129    2.6302887356
H        1.7887186396   -0.8141685066   -1.4240242766
H        3.5340729915   -1.9664687705    2.3263078658
H       -0.2249114700    0.0242749259   -0.2343475426
H        1.5163907355   -1.1270086090    3.5332609588
H        4.9496595831   -3.8135306878   -3.6150920434
H        5.8917460406   -2.3457323183   -3.9763163229
H        4.1145822296   -2.2571706685   -3.8548482671
H        6.2809708374   -2.3139959808   -0.3252499381
H        7.1605207182   -2.6138685162   -1.8483420176
H        6.2235262504   -3.9258837598   -1.0677355938
22   
Generated by ForceBalance from scan.xyz: Frame 3 of 24
C        1.7032233535   -0.9421952616   -0.3271012532
C        2.7263138820   -1.4871137269    1.7988878181
C        0.5791279856   -0.4585820259    0.3393380745
C        1.6045902536   -1.0052915965    2.4761543454
C        2.7912764813   -1.4673901888    0.3967715382
C        0.5376906642   -0.4945918910    1.7368592883
C        5.0102940967   -2.6842323722   -3.4518272438
C        6.2543290827   -2.9148000088   -1.2877527746
N        3.9798099812   -1.9833990372   -0.1719351054
N        3.9599889900   -2.0290902485   -1.4416464210
N        5.0803609204   -2.4600345556   -2.0206089647
Br      -1.0119695722    0.1758269642    2.6503573606
H        1.7452331704   -0.9140987411   -1.4105906051
H        3.5705027374   -1.8892350487    2.3519132803
H       -0.2580374316   -0.0532073874   -0.2203100749
H        1.5636510835   -1.0267487978    3.5603780415
H        4.9909736856   -3.7575648860   -3.6866707522
H        5.8787904012   -2.2365392797   -3.9481999742
H        4.0989571885   -2.2199869565   -3.8296371423
H        6.1676380259   -2.5928210672   -0.2515039584
H        7.1522377752   -2.4767280791   -1.7360616968
H        6.3349515958   -4.0094973295   -1.3173838607
22   
Generated by ForceBalance from scan.xyz: Frame 4 of 24
C        1.6358980741   -1.0134540883   -0.4159508971
C        2.6650519338   -1.3741431106    1.7458850159
C        0.5035632404   -0.4966122412    0.2103048619
C        1.5350964280   -0.8578116971    2.3829188297
C        2.7332381630   -1.4593780998    0.3463205967
C        0.4614214468   -0.4224345589    1.6062949338
C        5.1121334007   -2.5931699007   -3.4353569113
C        6.2172603555   -3.0076188717   -1.2248947439
N        3.9302024263   -2.0002165522   -0.1793115100
N        3.9516007884   -2.0540418225   -1.4488260617
N        5.0570608178   -2.5649698150   -1.9870794527
Br      -1.1009126369    0.2902296287    2.4647989637
H        1.6762137255   -1.0746666272   -1.4981120570
H        3.5139743093   -1.7198854068    2.3289692081
H       -0.3408865046   -0.1536727045   -0.3793559421
H        1.4926586869   -0.7963029566    3.4655503010
H        5.3012319388   -3.6124076237   -3.7945016311
H        5.9113016602   -1.9402100870   -3.8106747619
H        4.1538608104   -2.2471651433   -3.8232244326
H        6.0215391144   -2.8532707575   -0.1656646014
H        7.1033255111   -2.4347928762   -1.5246403879
H        6.4071184426   -4.0713017212   -1.4124354537
22   
Generated by ForceBalance from scan.xyz: Frame 5 of 24
C        1.6087398268   -1.1053360168   -0.3888492769
C        2.7273809409   -1.3024426910    1.7500003513
C        0.4890643039   -0.5729420705    0.2472658909
C        1.6102800123   -0.7694533994    2.3958378077
C        2.7456951166   -1.4728738119    0.3567212849
C        0.4979547527   -0.4074916005    1.6359534631
C        5.1368269374   -2.5139620259   -3.4395708271
C        6.1639291249   -3.1158585451   -1.2340713346
N        3.9333474945   -2.0227283450   -0.1808706507
N        3.9470157925   -2.0625375475   -1.4510686133
N        5.0258219596   -2.6215131077   -1.9975573531
Br      -1.0484871562    0.3232113895    2.5080773342
H        1.6079115166   -1.2410925714   -1.4650141894
H        3.6052528120   -1.5925917631    2.3204241531
H       -0.3867047554   -0.2915210428   -0.3290817987
H        1.6067787497   -0.6396707980    3.4732290085
H        5.3961831310   -3.4864044468   -3.8735443392
H        5.9104201678   -1.7881864569   -3.7266466508
H        4.1755187868   -2.1860409663   -3.8358582900
H        5.8766049584   -3.2096155065   -0.1887415077
H        7.0176753244   -2.4301801461   -1.3189476899
H        6.4638778247   -4.0920708071   -1.6298919364
22   
Generated by ForceBalance from scan.xyz: Frame 6 of 24
C        1.5874541953   -1.1489881027   -0.4022622840
C        2.7404689222   -1.2637217093    1.7236394202
C        0.4724292598   -0.6063727587    0.2335700281
C        1.6286724797   -0.7201047601    2.3697284209
C        2.7399565572   -1.4790534986    0.3365413264
C        0.5013275152   -0.3940959663    1.6155890652
C        5.1658736640   -2.4929086660   -3.4406164068
C        6.1222797940   -3.1586130939   -1.2169875272
N        3.9248827475   -2.0345551599   -0.2021715701
N        3.9323042644   -2.0838387263   -1.4724293138
N        5.0015514153   -2.6713700426   -2.0096961707
Br      -1.0391027048    0.3494414446    2.4873332307
H        1.5708509282   -1.3224543342   -1.4728920527
H        3.6299323573   -1.5267537356    2.2892032605
H       -0.4155257668   -0.3541080184   -0.3375854614
H        1.6404511713   -0.5549534551    3.4422118172
H        5.4877329851   -3.4326920712   -3.9015328864
H        5.9132185669   -1.7191066171   -3.6666609665
H        4.2061112394   -2.1930012685   -3.8624546731
H        5.7620873355   -3.4708893741   -0.2380117441
H        6.8878353603   -2.3811119336   -1.0854636583
H        6.5735030316   -4.0060395706   -1.7410455229
22   
Generated by ForceBalance from scan.xyz: Frame 7 of 24
C        1.5748580575   -1.1714690710   -0.4139062577
C        2.7509590413   -1.2487098309    1.7023244988
C        0.4660757543   -0.6172036042    0.2227730393
C        1.6457033165   -0.6928317501    2.3490670754
C        2.7346240723   -1.4875987970    0.3193253676
C        0.5108539606   -0.3801987888    1.6003489528
C        5.1810584192   -2.4904092466   -3.4427832437
C        6.0912244808   -3.1688410058   -1.1986790878
N        3.9132723395   -2.0536753356   -0.2227647471
N        3.9153407760   -2.1063985578   -1.4931621406
N        4.9776631748   -2.7167620889   -2.0222864452
Br      -1.0200816492    0.3787805838    2.4750021577
H        1.5476092627   -1.3653921105   -1.4808307343
H        3.6461618825   -1.5025412473    2.2630680551
H       -0.4281085905   -0.3756987310   -0.3433009911
H        1.6680193403   -0.5083591927    3.4182194189
H        5.5545698182   -3.4037031413   -3.9160181278
H        5.9010509408   -1.6798111501   -3.6250103656
H        4.2230272236   -2.2188410819   -3.8875225126
H        5.7092074293   -3.6771122969   -0.3132217025
H        6.7191083004   -2.3272543888   -0.8745997315
H        6.6976137075   -3.8560077362   -1.7936177708
22   
Generated by ForceBalance from scan.xyz: Frame 8 of 24
C        1.5609792530   -1.1789100828   -0.4790626152
C        2.6997145143   -1.2665061010    1.6568231932
C        0.4453755831   -0.6185589747    0.1401255986
C        1.5873845661   -0.7043122293    2.2858264233
C        2.7056765822   -1.5039918432    0.2735572458
C        0.4673498749   -0.3834286364    1.5186042934
C        5.2174383589   -2.5281026249   -3.4388697258
C        6.0976745558   -3.1273278321   -1.1543601542
N        3.8894532519   -2.0781754052   -0.2487593554
N        3.9099811020   -2.1385705244   -1.5190154216
N        4.9879394535   -2.7461265599   -2.0194313606
Br      -1.0734626754    0.3846059283    2.3677389588
H        1.5507105839   -1.3706321482   -1.5466829489
H        3.5834599114   -1.5272541043    2.2323554423
H       -0.4372808842   -0.3701680112   -0.4408252324
H        1.5928797094   -0.5214411466    3.3554635670
H        5.6345334372   -3.4324234768   -3.8916819126
H        5.9095682246   -1.6925906689   -3.6159790869
H        4.2602727911   -2.2992800976   -3.9086938154
H        5.7474609520   -3.8119118825   -0.3785469257
H        6.5292688299   -2.2499492387   -0.6552313536
H        6.8560239908   -3.6171971148   -1.7674512065
22   
Generated by ForceBalance from scan.xyz: Frame 9 of 24
C        1.6790119870   -0.9110522268   -0.5664257373
C        2.5657813291   -1.4201334127    1.6289966377
C        0.5064708246   -0.4367053460    0.0185714086
C        1.3945358353   -0.9480839433    2.2242009940
C        2.7215462935   -1.4158831900    0.2340801865
C        0.3717797573   -0.4604211700    1.4103816384
C        5.1452966692   -2.9171984665   -3.3739292302
C        6.2732325763   -2.7996889615   -1.1281406721
N        3.9520751797   -1.9194991312   -0.2512374119
N        3.9872042773   -2.0462383509   -1.5161920242
N        5.1664366131   -2.4364791834   -2.0030030077
Br      -1.2432119147    0.1987900762    2.2119220133
H        1.7950274507   -0.8901515821   -1.6447559097
H        3.3774144164   -1.8034214468    2.2410208215
H       -0.2956398496   -0.0460251008   -0.5997169662
H        1.2818413065   -0.9584403341    3.3034585598
H        5.0701291455   -4.0131199853   -3.4180983802
H        6.0583625627   -2.6075899422   -3.8916189670
H        4.2803143963   -2.4829577836   -3.8765019518
H        6.1075787913   -3.7800525960   -0.6597097574
H        6.3633077253   -2.0620481117   -0.3299172898
H        7.1875193340   -2.8311820364   -1.7244161621
22   
Generated by ForceBalance from scan.xyz: Frame 10 of 24
C        1.6719051452   -0.9282374880   -0.5877966457
C        2.5513951284   -1.3814819912    1.6225136955
C        0.4972739559   -0.4389569518   -0.0196101936
C        1.3781215268   -0.8937301680    2.2008886146
C        2.7123978869   -1.4121893599    0.2284255916
C        0.3580204833   -0.4266560948    1.3718878746
C        5.1605214408   -2.9105837540   -3.3689837377
C        6.2928059922   -2.8278461099   -1.1292885682
N        3.9441101503   -1.9290292385   -0.2389704593
N        3.9916172642   -2.0674739011   -1.5018576247
N        5.1639359395   -2.4821217474   -1.9822636403
Br      -1.2597444890    0.2525436218    2.1511063307
H        1.7908959807   -0.9356845324   -1.6659482950
H        3.3603591740   -1.7496942118    2.2471986825
H       -0.3028960464   -0.0649285309   -0.6506109769
H        1.2617123078   -0.8766978654    3.2796688944
H        5.1333125882   -4.0063940451   -3.4513389986
H        6.0593415613   -2.5456120440   -3.8770964610
H        4.2766715471   -2.4962840691   -3.8550256684
H        6.2634511046   -3.8885874496   -0.8419314604
H        6.2473980229   -2.2320274213   -0.2185520113
H        7.2192623180   -2.6312971353   -1.6751962399
22   
Generated by ForceBalance from scan.xyz: Frame 11 of 24
C        1.6520959546   -0.9797878369   -0.5667833551
C        2.5717422751   -1.3382588350    1.6447081250
C        0.4829144575   -0.4783857660    0.0017987097
C        1.4041352807   -0.8376924034    2.2236900895
C        2.7111493784   -1.4206748772    0.2503185331
C        0.3668917864   -0.4118232371    1.3939543492
C        5.1563666076   -2.8688748431   -3.3739798089
C        6.2901783267   -2.8957931140   -1.1388266661
N        3.9398947634   -1.9451220614   -0.2155921974
N        3.9872386315   -2.0880836730   -1.4774289517
N        5.1459058366   -2.5312494765   -1.9636143369
Br      -1.2445405300    0.2827807480    2.1727262856
H        1.7519253173   -1.0308349068   -1.6456561615
H        3.3938477594   -1.6754555578    2.2697339602
H       -0.3317832843   -0.1380424457   -0.6297082208
H        1.3052786723   -0.7797797064    3.3028196420
H        5.1764017462   -3.9574551688   -3.5231194721
H        6.0380197711   -2.4363523767   -3.8605432911
H        4.2545911923   -2.4625292336   -3.8327231015
H        6.3920234199   -3.9878919693   -1.0778249989
H        6.1409686587   -2.5024552519   -0.1350596232
H        7.2023124241   -2.4808741809   -1.5798498424
22   
Generated by ForceBalance from scan.xyz: Frame 12 of 24
C        1.6542394178   -0.9043591537   -0.4920801630
C        2.5283081361   -1.4989549248    1.6865393817
C        0.5044979363   -0.3964481263    0.1093196390
C        1.3798216084   -0.9924980176    2.2978773499
C        2.6824383775   -1.4634771472    0.2916560411
C        0.3749448708   -0.4440717386    1.5010700612
C        5.2307758630   -2.4083532777   -3.4311237175
C        6.1904205616   -3.0322635072   -1.2003048306
N        3.8896227738   -2.0065574156   -0.2075142999
N        3.9839468172   -1.9615993949   -1.4741041114
N        5.1044835650   -2.4642661248   -1.9880771577
Br      -1.2112052101    0.2573175128    2.3247437033
H        1.7618396336   -0.8706442023   -1.5708616229
H        3.3245869516   -1.9309192577    2.2861749816
H       -0.2865094561    0.0340780727   -0.4967509702
H        1.2705041709   -1.0249538506    3.3770623232
H        5.3597221001   -3.4150128338   -3.8486853500
H        6.0955885030   -1.7989861392   -3.7242914957
H        4.3230044966   -1.9635244138   -3.8391440823
H        6.3503413171   -4.0803017519   -1.4814205338
H        5.9279572788   -2.9732529161   -0.1458861401
H        7.1169925073   -2.4744060292   -1.3817426480
22   
Generated by ForceBalance from scan.xyz: Frame 13 of 24
C        1.6384377269   -1.0053292052   -0.4305743859
C        2.6371313117   -1.4557318850    1.7289044827
C        0.5129747433   -0.4793371681    0.2005790596
C        1.5139841443   -0.9304432300    2.3705674363
C        2.7183476726   -1.4970867395    0.3281091873
C        0.4592452381   -0.4447755704    1.5976867745
C        5.2379836030   -2.3192801571   -3.4385943209
C        6.1379060416   -3.1489228417   -1.2513578009
N        3.9062377833   -2.0520718711   -0.2037819140
N        3.9768864953   -1.9859520411   -1.4708852547
N        5.0564465862   -2.5438159803   -2.0173888062
Br      -1.0947163076    0.2777864390    2.4630180502
H        1.6862885200   -1.0397659012   -1.5136480058
H        3.4710919748   -1.8407108249    2.3089966922
H       -0.3186619173   -0.1018714515   -0.3861674714
H        1.4617457859   -0.9013004789    3.4541133202
H        5.4834933936   -3.2609653186   -3.9426777264
H        6.0487207196   -1.6021177375   -3.6284296745
H        4.3080249880   -1.9226260010   -3.8467631304
H        6.4199215467   -4.1013732308   -1.7117509932
H        5.8003925112   -3.3068278721   -0.2287772244
H        7.0169627770   -2.4903307062   -1.2345383862
22   
Generated by ForceBalance from scan.xyz: Frame 14 of 24
C        1.6122129371   -1.0551026889   -0.4506396559
C        2.6547316647   -1.4114074004    1.7058827220
C        0.4924882114   -0.5167957769    0.1805810639
C        1.5375284514   -0.8731059125    2.3470456721
C        2.7115685607   -1.5038392920    0.3063869212
C        0.4635954118   -0.4280350719    1.5759681756
C        5.2722501633   -2.2938066929   -3.4352348778
C        6.0892989063   -3.1967107687   -1.2392559462
N        3.8955145299   -2.0663921628   -0.2270162398
N        3.9628106675   -2.0030902373   -1.4949889337
N        5.0309087900   -2.5900960597   -2.0350117762
Br      -1.0829428814    0.3098705675    2.4416763524
H        1.6402587307   -1.1333835250   -1.5321741592
H        3.5030373161   -1.7656856762    2.2847569089
H       -0.3545493414   -0.1729045948   -0.4047274180
H        1.5041560362   -0.8031815009    3.4294522855
H        5.5786465991   -3.2024727653   -3.9641202748
H        6.0600264645   -1.5367775281   -3.5562376230
H        4.3470872255   -1.9158229809   -3.8714184394
H        6.5370640463   -4.0124434802   -1.8128966626
H        5.6663615605   -3.5673916211   -0.3063901492
H        6.8689946747   -2.4629424573   -0.9897501337
22   
Generated by ForceBalance from scan.xyz: Frame 15 of 24
C        1.6057806372   -1.0721021666   -0.4295333466
C        2.6931750084   -1.3964635319    1.7105431203
C        0.4997186160   -0.5254041955    0.2184374498
C        1.5896904390   -0.8490623480    2.3675210014
C        2.7206198792   -1.5082704191    0.3116675838
C        0.4995769236   -0.4156150549    1.6126345854
C        5.2661323110   -2.2780090661   -3.4397338877
C        6.0555259887   -3.2006728862   -1.2363074408
N        3.8930381509   -2.0788344687   -0.2388198185
N        3.9434498697   -2.0133607320   -1.5079124256
N        4.9980238526   -2.6212392586   -2.0537017204
Br      -1.0294061607    0.3337273695    2.4994112671
H        1.6110047149   -1.1671210617   -1.5101325877
H        3.5536094443   -1.7426972166    2.2762479386
H       -0.3601154580   -0.1911806538   -0.3535937377
H        1.5789506542   -0.7636039562    3.4492598304
H        5.6231401823   -3.1602515158   -3.9798753928
H        6.0230903332   -1.4849690730   -3.5218311272
H        4.3375200016   -1.9286591903   -3.8924782605
H        6.6610652037   -3.8534094454   -1.8685967488
H        5.6125874404   -3.7674703544   -0.4165698807
H        6.6939951740   -2.4214232722   -0.7969785992
22   
Generated by ForceBalance from scan.xyz: Frame 16 of 24
C        1.7302292879   -0.8004602346   -0.3489574646
C        2.6695040851   -1.5980207381    1.7369486398
C        0.5995850688   -0.3555146344    0.3333885004
C        1.5399157541   -1.1566186393    2.4284473455
C        2.7772256095   -1.4341061885    0.3472133025
C        0.5113689980   -0.5384054712    1.7171561659
C        5.0250656016   -2.5943155954   -3.4926861536
C        6.1809867909   -2.8462963581   -1.2691568598
N        3.9694740961   -1.9209764240   -0.2405314997
N        3.9603706747   -1.8923456305   -1.5118881853
N        5.1073448198   -2.2788562996   -2.0754748774
Br      -1.0468614186    0.0808825877    2.6517306701
H        1.8099826119   -0.6570973163   -1.4212537968
H        3.4853628360   -2.0805259671    2.2678043851
H       -0.2065545527    0.1347980616   -0.2032532608
H        1.4637574522   -1.2903306286    3.5026526044
H        4.8592423741   -3.6677461286   -3.6624558244
H        5.9510023762   -2.2977728269   -3.9941151120
H        4.1906100840   -2.0364663620   -3.9190084330
H        7.0195996660   -3.0750726988   -1.9290605023
H        5.8502570239   -3.7581455678   -0.7549555424
H        6.4929006696   -2.1291764103   -0.5065997797
22   
Generated by ForceBalance from scan.xyz: Frame 17 of 24
C        1.7306806547   -0.8155924796   -0.3115795764
C        2.6787494900   -1.6246991277    1.7650332221
C        0.6078238996   -0.3636013162    0.3790090507
C        1.5573940153   -1.1760147120    2.4651795055
C        2.7784220152   -1.4588226703    0.3748216837
C        0.5281647744   -0.5486250697    1.7629555833
C        4.9917535602   -2.5958152883   -3.4943809170
C        6.1971304148   -2.8346328366   -1.2996239080
N        3.9618321717   -1.9552056456   -0.2223162273
N        3.9452740593   -1.9188209802   -1.4933520411
N        5.0826111556   -2.3050136140   -2.0738785303
Br      -1.0186423248    0.0802063736    2.7102397866
H        1.8036846700   -0.6703515544   -1.3840768742
H        3.4942291649   -2.1150046957    2.2892711380
H       -0.1983559341    0.1336679617   -0.1511637281
H        1.4879149697   -1.3114989786    3.5396167609
H        4.8765663379   -3.6731486024   -3.6804024231
H        5.8939795539   -2.2466800255   -4.0062545646
H        4.1232317070   -2.0728877681   -3.8961105843
H        7.0857049913   -2.8283373713   -1.9351411958
H        6.0020041274   -3.8633566924   -0.9662861768
H        6.3610517855   -2.2117390080   -0.4198855556
22   
Generated by ForceBalance from scan.xyz: Frame 18 of 24
C        1.7293671421   -0.8436103221   -0.2726490193
C        2.6993788944   -1.6291005627    1.8021394467
C        0.6131759905   -0.3856363999    0.4247503433
C        1.5850847470   -1.1741807539    2.5095484992
C        2.7855391548   -1.4780836601    0.4092338999
C        0.5479037644   -0.5555353222    1.8113816077
C        4.9653032141   -2.5769071379   -3.4921268188
C        6.2162345248   -2.8461667362   -1.3321252344
N        3.9633671977   -1.9795947520   -0.1940907992
N        3.9380697536   -1.9468794318   -1.4646583390
N        5.0618990620   -2.3414695912   -2.0632911961
Br      -0.9901363642    0.0814211894    2.7676531627
H        1.7904057829   -0.7101643289   -1.3474006323
H        3.5204888803   -2.1131786963    2.3233316315
H       -0.1992426971    0.1046025181   -0.1024629021
H        1.5270597958   -1.2984597504    3.5860336907
H        4.8832847003   -3.6494084416   -3.7188282564
H        5.8519308214   -2.1810482607   -3.9985072123
H        4.0770568121   -2.0665188530   -3.8657061483
H        7.1180613179   -2.6085983260   -1.9036536879
H        6.1622628576   -3.9360517266   -1.2013218559
H        6.2568689524   -2.3729638302   -0.3522859614
22   
Generated by ForceBalance from scan.xyz: Frame 19 of 24
C        1.7117027746   -0.8897587846   -0.2583622669
C        2.7209383962   -1.5929802795    1.8277814750
C        0.5999789246   -0.4211141247    0.4389142102
C        1.6110399687   -1.1266865202    2.5347394993
C        2.7858766639   -1.4869096021    0.4295170744
C        0.5568206085   -0.5439059750    1.8313864774
C        4.9617466420   -2.5400561618   -3.4908915556
C        6.2113433629   -2.9067727959   -1.3493124377
N        3.9612936653   -1.9944933600   -0.1726244485
N        3.9333253326   -1.9722941362   -1.4430080252
N        5.0418043962   -2.3935344537   -2.0502707643
Br      -0.9755585591    0.1064742648    2.7878310786
H        1.7548406434   -0.7941148044   -1.3379724974
H        3.5547629496   -2.0498328756    2.3533756874
H       -0.2263279975    0.0399968434   -0.0930093931
H        1.5694330513   -1.2152140698    3.6155097387
H        4.9309878743   -3.5991037435   -3.7825023098
H        5.8314759342   -2.0744811730   -3.9684896999
H        4.0525674530   -2.0481554745   -3.8374695440
H        7.1137031695   -2.4713385172   -1.7917905756
H        6.2726304311   -3.9994595457   -1.4414179329
H        6.1430387357   -2.6346916205   -0.2979400498
22   
Generated by ForceBalance from scan.xyz: Frame 20 of 24
C        1.6606020832   -0.9709529359   -0.2832002160
C        2.7315109610   -1.4988149998    1.8232433377
C        0.5513176281   -0.4826764919    0.4042478619
C        1.6247689950   -1.0119967189    2.5213480774
C        2.7669006254   -1.4864869538    0.4199254079
C        0.5414072912   -0.5068205100    1.8026009526
C        5.0038448843   -2.4693996656   -3.4884905155
C        6.1677330661   -3.0186308599   -1.3384025860
N        3.9426289045   -2.0069112445   -0.1702788873
N        3.9302806968   -1.9812859700   -1.4407995208
N        5.0216976070   -2.4542087402   -2.0390895824
Br      -0.9891625885    0.1672302615    2.7453892999
H        1.6760782668   -0.9553774576   -1.3676192313
H        3.5875754321   -1.8971162935    2.3605530421
H       -0.3000264677   -0.0857968270   -0.1399028945
H        1.6076682963   -1.0262208591    3.6063286183
H        5.0388426455   -3.4982449569   -3.8707534808
H        5.8650926387   -1.9216639149   -3.8907952713
H        4.0840384506   -1.9918015319   -3.8265807007
H        7.0718706270   -2.4434934298   -1.5716421219
H        6.3230267297   -4.0585247478   -1.6508014924
H        5.9779814019   -2.9815640007   -0.2675569131
22   
Generated by ForceBalance from scan.xyz: Frame 21 of 24
C        1.6566812627   -1.0712002532   -0.1940462108
C        2.8592391861   -1.4669196446    1.8697370935
C        0.5794253142   -0.5659424611    0.5311674887
C        1.7854358001   -0.9621752971    2.6054789176
C        2.8140898415   -1.5249207353    0.4679138982
C        0.6520985358   -0.5141420390    1.9268800020
C        5.0036174493   -2.3308298420   -3.5033926584
C        6.1198235608   -3.1094042420   -1.3990339456
N        3.9631531456   -2.0564166418   -0.1640328418
N        3.9174301308   -2.0042455683   -1.4328450274
N        4.9572444570   -2.5421837020   -2.0692895709
Br      -0.8355288050    0.1796432776    2.9225210346
H        1.6067056757   -1.1188360100   -1.2765080914
H        3.7524890361   -1.8225507244    2.3755312912
H       -0.3119462325   -0.2179242434    0.0186055881
H        1.8312182309   -0.9199542434    3.6888865222
H        5.2295313710   -3.2718315291   -4.0177689376
H        5.7731319157   -1.5941571216   -3.7731981345
H        4.0297474040   -1.9651856592   -3.8299510978
H        6.9822690968   -2.4336297822   -1.4714031126
H        6.3742284939   -4.0669032178   -1.8655323536
H        5.8777127746   -3.2661824005   -0.3494116149
22   
Generated by ForceBalance from scan.xyz: Frame 22 of 24
C        1.6313165708   -1.1219831738   -0.2108080245
C        2.8752176221   -1.4213736978    1.8454680838
C        0.5591775258   -0.6053374133    0.5141543741
C        1.8064534670   -0.9044852513    2.5800262870
C        2.8069306112   -1.5310073027    0.4477296799
C        0.6549218909   -0.4986583093    1.9053024341
C        5.0358367613   -2.3037309313   -3.5039431136
C        6.0749137270   -3.1573514618   -1.3835246145
N        3.9526795104   -2.0689952215   -0.1852733874
N        3.9026768242   -2.0209972747   -1.4546176076
N        4.9320674377   -2.5880338569   -2.0843213675
Br      -0.8263640997    0.2093224924    2.9004147131
H        1.5630778578   -1.2139655032   -1.2894762723
H        3.7822092939   -1.7451030828    2.3482613293
H       -0.3468331100   -0.2920301904    0.0049371473
H        1.8697255945   -0.8209123754    3.6601285357
H        5.3171831910   -3.2109178323   -4.0490025040
H        5.7882221228   -1.5279886390   -3.7050683209
H        4.0646073940   -1.9558763562   -3.8571833347
H        6.8595737524   -2.4071939567   -1.2140986018
H        6.4766816009   -3.9794377052   -1.9821864228
H        5.7444559887   -3.5357042695   -0.4167594795
22   
Generated by ForceBalance from scan.xyz: Frame 23 of 24
C        1.6341540020   -1.1336266924   -0.1626095038
C        2.9322963361   -1.4121306001    1.8631671706
C        0.5826989143   -0.6064645497    0.5848162573
C        1.8848338307   -0.8843034037    2.6201828043
C        2.8261203261   -1.5368852209    0.4691450656
C        0.7164996677   -0.4838046496    1.9714856860
C        5.0116857528   -2.2890744641   -3.5065462252
C        6.0379330813   -3.1609992906   -1.3812756969
N        3.9530026259   -2.0852688112   -0.1887979973
N        3.8761845408   -2.0360266106   -1.4571322038
N        4.8895440334   -2.6220404643   -2.0974494551
Br      -0.7362480453    0.2383088558    2.9977714328
H        1.5368539042   -1.2387886353   -1.2378588448
H        3.8517726533   -1.7326961682    2.3448740144
H       -0.3363707885   -0.2977091116    0.0966787011
H        1.9769924553   -0.7885549587    3.6971873408
H        5.3327411535   -3.1696228595   -4.0715093014
H        5.7391682722   -1.4813679230   -3.6707021060
H        4.0354063064   -1.9642989173   -3.8680551597
H        6.6963915573   -2.3621155218   -1.0135589129
H        6.5902218233   -3.8130210480   -2.0614929680
H        5.6909346300   -3.7354912041   -0.5213965053
22   
Generated by ForceBalance from scan.xyz: Frame 24 of 24
C        1.6096710619   -1.1390068403   -0.2411154783
C        2.8613499144   -1.4244431201    1.8128777710
C        0.5452090046   -0.6054490802    0.4828705781
C        1.8009233239   -0.8899661479    2.5468789255
C        2.7847277677   -1.5496007939    0.4170364137
C        0.6496792814   -0.4831612339    1.8721564484
C        5.0579793633   -2.3332307445   -3.5024535544
C        6.0491995031   -3.1261219065   -1.3248654022
N        3.9220519416   -2.1063565412   -0.2156319756
N        3.8702878898   -2.0666329648   -1.4858943814
N        4.9028098182   -2.6554086461   -2.0927747584
Br      -0.8207246022    0.2484188512    2.8658748487
H        1.5356785386   -1.2435450475   -1.3182691792
H        3.7680463424   -1.7506537685    2.3145975439
H       -0.3609866421   -0.2910150226   -0.0253106947
H        1.8700364701   -0.7941520955    3.6256088383
H        5.4232851639   -3.2092183221   -4.0465164675
H        5.7621429520   -1.5030536282   -3.6554337038
H        4.0825928925   -2.0460649555   -3.8966296435
H        6.5234562862   -2.3003988995   -0.7786185333
H        6.7656885502   -3.5692850164   -2.0185823173
H        5.7290666219   -3.8703798819   -0.5922604283
