34

C     -2.78977   -2.79505   -1.71400
C     -2.92986   -2.78909    0.67945
C     -1.95792   -1.66899   -1.62165
C     -3.28681   -3.36687   -0.54927
C     -1.58156   -1.20174   -0.34669
C     -4.38980    0.58539   -1.85040
C     -4.80937    1.12620   -3.20007
C      0.62830   -0.43372    0.68757
C      0.76496   -0.13589   -0.78788
C     -3.36324    0.80710   -2.92439
C     -0.60147   -0.08308   -0.11756
C     -1.23973    1.27232    0.15246
C     -1.53601   -0.98627   -2.89289
N     -2.09344   -1.75809    0.76607
N     -2.75151   -0.37050   -3.60300
Cl    -4.32273   -4.76101   -0.60426
H     -3.04393   -3.23724   -2.67666
H     -3.32560   -3.19040    1.61043
H     -4.35343    1.25563   -0.99870
H     -4.66635   -0.43482   -1.60379
H     -5.37174    0.46633   -3.85604
H     -5.06793    2.17532   -3.29607
H      0.74743   -1.46339    1.00815
H      0.98339    0.30384    1.40028
H      1.22141    0.80411   -1.08699
H      1.00496   -0.97729   -1.43353
H     -2.63959    1.60900   -2.83122
H     -0.47625    2.01434    0.40253
H     -1.93359    1.20364    0.99595
H     -1.79258    1.64764   -0.71568
H     -0.83946   -0.16991   -2.71606
H     -1.10017   -1.68213   -3.61583
H     -3.46596   -1.09961   -3.71325
H     -2.47755   -0.09569   -4.55481
