30

C      0.32143    2.59600   -0.80964
C     -0.75406    2.61483    0.08730
C      0.93430    1.38680   -1.14418
C     -1.22361    1.43242    0.66858
C      0.45558    0.21043   -0.56798
C     -0.60907    0.22895    0.34031
C      0.73056   -2.14621   -0.19135
C     -0.06535   -1.94223    1.08409
C      1.41697    0.90118    4.52581
C      0.88003   -1.57182    2.24313
C      0.11450   -1.37360    3.55856
N      0.99454   -1.06685   -0.90859
N      1.16222   -3.35971   -0.52322
O     -1.07880   -0.96308    0.85186
S      1.20426   -0.86717    4.93171
H      0.68186    3.51985   -1.24993
H     -1.22902    3.55749    0.34086
H      1.76682    1.36173   -1.84335
H     -2.05837    1.42994    1.36254
H     -0.61184   -2.86015    1.31558
H      2.01400    1.33484    5.33090
H      0.45018    1.41066    4.49345
H      1.95050    1.04973    3.58311
H      1.42917   -0.66158    1.98358
H      1.62212   -2.36769    2.36701
H     -0.68568   -0.63861    3.43824
H     -0.34989   -2.31326    3.87410
H      1.55356   -1.13129   -1.75648
H      1.73934   -3.54055   -1.33933
H      0.92863   -4.15838    0.05609
