31

C     -0.29960    1.63278    1.67680
C      1.38836    0.35202    0.30344
C     -1.06854    0.11027   -0.17991
C      1.62444   -0.91540   -0.52078
C     -0.73582   -1.14783   -0.98475
C     -0.02030    0.32827    0.93179
C     -0.37443    5.06611    0.46194
C      1.10886   -1.91747   -3.65482
C     -0.49729    3.99578    1.52941
N      0.60239   -1.00279   -1.57176
O     -0.55655    1.66702    2.87068
O     -0.09677   -0.74267    1.86844
O     -0.23622    2.71437    0.88889
O      0.86411   -2.23391   -2.28819
H      2.13602    0.41643    1.10031
H      1.48634    1.23241   -0.33782
H     -1.08201    0.97953   -0.84353
H     -2.05850    0.00417    0.27508
H      2.60298   -0.86901   -1.00708
H      1.60234   -1.80311    0.12755
H     -0.79199   -2.03850   -0.34255
H     -1.45050   -1.26863   -1.80377
H      0.62939    5.07207    0.02740
H     -1.09953    4.90339   -0.34073
H     -0.56459    6.04898    0.90472
H      1.30037   -2.87295   -4.15198
H      1.98378   -1.26385   -3.76331
H      0.23918   -1.43063   -4.11424
H     -1.49678    3.96321    1.97111
H      0.22629    4.13102    2.33767
H     -0.33029   -0.34160    2.72723
