66

C     -2.21697    4.39733  -10.92722
C     -1.60683   -0.97286   -6.50816
C     -2.35336    3.00714  -10.94387
C     -1.67383   -1.30986   -5.15655
C      0.72055   -0.38400   -6.26957
C     -0.97742    4.93992  -10.57863
C     -0.04926    2.86408  -10.29498
C     -0.41499   -0.50398   -7.07677
C     -1.25135    2.21090  -10.61760
C     -0.54119   -1.18795   -4.34206
C      0.65311   -0.71618   -4.92269
C      0.32613   -0.98980   -2.07819
C     -0.25161   -0.12681   -8.52421
C      3.01211   -0.95460   -4.35627
C      1.36502   -0.06325   -2.71166
C      8.16461   -4.28085   -2.42861
C      7.15908   -3.66969   -1.44466
C      7.53276   -4.49935   -3.80903
C     -1.26836   -3.64002   -1.70211
C     -1.87616   -3.73815   -3.07872
C      6.55560   -2.36500   -1.99347
C      6.92903   -3.19827   -4.36415
C     -1.63195   -2.38416   -2.45025
C      5.92958   -2.61226   -3.36567
C     -1.34132    0.69946  -10.57909
C      4.13012   -0.77384   -3.29980
N      0.09444    4.19446  -10.26749
N     -0.56020   -1.55758   -2.97391
N      1.76589   -0.55740   -4.03095
N     -1.39745    0.17071   -9.20968
N      5.37142   -1.31651   -3.94199
O      0.30918   -1.17687   -0.87198
O      0.86656   -0.10074   -9.04131
O      3.34060   -1.44065   -5.44505
H     -3.04838    5.04835  -11.18161
H     -2.49441   -1.11112   -7.11853
H     -3.30301    2.54941  -11.21544
H     -2.60053   -1.68102   -4.73658
H      1.64446   -0.04285   -6.71996
H     -0.83549    6.01913  -10.55321
H      0.83261    2.27485  -10.04960
H      0.93625    0.93963   -2.82175
H      2.20100    0.00160   -2.02069
H      8.53903   -5.23072   -2.03546
H      9.03348   -3.61674   -2.52377
H      6.35102   -4.38560   -1.24761
H      7.63571   -3.46388   -0.48199
H      8.27399   -4.87843   -4.51821
H      6.74599   -5.26117   -3.74088
H     -1.87160   -3.88696   -0.83514
H     -0.21292   -3.86460   -1.59726
H     -1.22755   -4.03002   -3.89888
H     -2.90769   -4.06131   -3.17876
H      5.81888   -1.96635   -1.28698
H      7.35011   -1.61206   -2.09444
H      7.73399   -2.47102   -4.53982
H      6.43760   -3.38424   -5.32621
H     -2.48895   -1.81857   -2.09335
H      5.06189   -3.27482   -3.28035
H     -2.23402    0.35647  -11.10953
H     -0.47014    0.24560  -11.05314
H      3.92810   -1.33255   -2.38650
H      4.27933    0.27563   -3.04203
H     -2.22326    0.40116   -8.67164
H      6.11469   -0.61221   -3.96077
H      5.05923   -1.49482   -4.92911
