61

C      8.82384    0.51245    0.44057
C     10.30733   -1.15107   -0.51430
C      9.81386    1.48613    0.25918
C     11.29043   -0.18269   -0.69405
C      9.06699   -0.81284    0.05238
C     11.03748    1.13722   -0.30516
C      2.89885    2.51213    1.66439
C      2.04729    2.88926    2.88121
C      2.32548    1.28972    0.94536
C      1.27050    0.51791    2.97635
C      2.49206   -3.08442   -0.10698
C      2.71909   -1.59213    0.16295
C      1.80650    1.68931    3.82189
C      4.63720   -2.47423    1.33039
C      3.10865    1.27155    4.52858
C      0.75390    2.06342    4.87600
C      4.65932   -2.03469    2.79956
C      6.74170   -3.90899    1.58604
C      5.91944   -3.31704   -0.71454
C      1.73631   -1.05849    1.22266
C      6.89102   -1.53857    0.74823
C      6.04558   -2.82836    0.74034
N      2.16575    0.16866    1.87288
O      4.09511   -1.43924    0.50902
O      8.17322   -1.83550    0.18146
S      3.44088   -3.92872    1.20301
Cl    12.27799    2.36466   -0.53338
H      7.87758    0.80423    0.88026
H     10.48250   -2.18130   -0.80974
H      9.62580    2.51249    0.55869
H     12.24726   -0.44738   -1.13313
H      2.94907    3.35279    0.96278
H      3.92624    2.28994    1.97175
H      2.51326    3.71197    3.43734
H      1.07332    3.25875    2.53124
H      1.35499    1.55445    0.47548
H      3.00621    0.99087    0.14481
H      1.15308   -0.36569    3.61529
H      0.25946    0.77901    2.60105
H      1.43828   -3.36148   -0.02030
H      2.86097   -3.36808   -1.09530
H      2.60375   -1.02706   -0.76679
H      2.91818    0.45600    5.23611
H      3.53120    2.11113    5.09267
H      3.85711    0.91954    3.81592
H      0.54844    1.22173    5.54809
H     -0.19209    2.36020    4.40853
H      1.10094    2.90204    5.49030
H      3.66805   -1.69526    3.09376
H      5.34739   -1.19901    2.95043
H      4.95829   -2.85719    3.45358
H      7.69314   -4.18338    1.12457
H      6.95549   -3.56377    2.60191
H      6.12301   -4.80946    1.64905
H      6.91329   -3.47391   -1.13915
H      5.39874   -2.57997   -1.33173
H      5.37313   -4.26227   -0.75857
H      1.60422   -1.82024    1.99773
H      0.75463   -0.94374    0.71713
H      7.03824   -1.16755    1.76829
H      6.39255   -0.76369    0.15719
