21   
Generated by ForceBalance from scan.xyz: Frame 1 of 13
C       -0.6771461183    0.6222707862    1.1671904951
C        0.4622173078    1.0200753414    0.5007600311
C        0.7405162547    0.4767302146   -0.8164664683
C       -1.3324980131   -0.7980270894   -0.5001157581
C       -2.1348754190   -1.9477660149   -1.0389038824
C        2.3566779953    3.3843767876    2.5397260612
C        1.1836851856    2.4605205941    2.2653210791
N       -1.5601767984   -0.3162144525    0.6899044488
N       -0.2808069178   -0.3548540310   -1.2591660298
O        1.3851405411    1.8887485604    0.9647124627
S        2.0672540651    0.7918806562   -1.7691849173
H       -0.9201708408    1.0185757649    2.1474176548
H       -2.4309433781   -1.7895867862   -2.0817046930
H       -3.0289764396   -2.0757113719   -0.4290481283
H       -1.5433719202   -2.8691980168   -0.9933438435
H        3.2974728800    2.8277976108    2.5172441192
H        2.4057712749    4.1767356028    1.7879576672
H        2.2441324193    3.8438438832    3.5269414371
H        0.2338323306    3.0116181428    2.2795162892
H        1.1278376601    1.6571725294    3.0121707147
H       -0.1211865655   -0.7586664967   -2.1791645229
21   
Generated by ForceBalance from scan.xyz: Frame 2 of 13
C       -0.7393239131    0.7000812422    1.1285390736
C        0.4190304691    1.0688106169    0.4777001908
C        0.6936156465    0.5208817695   -0.8396578779
C       -1.3908043331   -0.7288269941   -0.5339737778
C       -2.0520493917   -1.9954425078   -0.9965463434
C        2.3837584907    3.3267552544    2.5700155653
C        1.1758315533    2.4581925699    2.2679995826
N       -1.6079654927   -0.2581961900    0.6622268724
N       -0.3848283890   -0.2167602550   -1.3181805526
O        1.3652555458    1.9026798488    0.9585220707
S        2.0509328388    0.7677350770   -1.7659257903
H       -0.9903905596    1.1081979119    2.1018791799
H       -2.3113617324   -1.9705835398   -2.0606434908
H       -2.9554158570   -2.1689582385   -0.4114980843
H       -1.3635005568   -2.8328065145   -0.8367997612
H        3.3007202593    2.7318614297    2.5441316714
H        2.4725102526    4.1309085254    1.8345551734
H        2.2816525238    3.7714203750    3.5651114451
H        0.2500375824    3.0487054758    2.2848029473
H        1.0789308518    1.6436827970    2.9983788486
H       -0.2287585815   -0.6239311532   -2.2375564055
21   
Generated by ForceBalance from scan.xyz: Frame 3 of 13
C       -0.8178483823    0.7808900574    1.0763424566
C        0.3656404045    1.1049114370    0.4449165008
C        0.6372837071    0.5471680073   -0.8722515298
C       -1.4681046360   -0.6569044102   -0.5808502344
C       -1.9764346763   -2.0237686382   -0.9447262094
C        2.3999437503    3.2536708782    2.5858078315
C        1.1559740276    2.4484544113    2.2559134604
N       -1.6792292301   -0.1897961045    0.6181769671
N       -0.4928829086   -0.0938472179   -1.3766133353
O        1.3392977259    1.8954498040    0.9444208213
S        2.0187523048    0.7187355623   -1.7741077239
H       -1.0768043117    1.2061336095    2.0401436236
H       -2.2227247966   -2.1244367783   -2.0076973157
H       -2.8578922349   -2.2581181917   -0.3473735743
H       -1.1878968101   -2.7479492730   -0.7113150084
H        3.2867277346    2.6142947735    2.5702832706
H        2.5410702501    4.0583224752    1.8591093778
H        2.3028105231    3.6950429145    3.5828651694
H        0.2603612912    3.0839205012    2.2633634206
H        1.0065236476    1.6331152963    2.9764432819
H       -0.3399719968   -0.4984998473   -2.2980341874
21   
Generated by ForceBalance from scan.xyz: Frame 4 of 13
C       -0.8820621909    0.8595654690    1.0296130266
C        0.3272715371    1.1290983872    0.4202327116
C        0.5900372605    0.5564937729   -0.8954948728
C       -1.5291571094   -0.6027972737   -0.6115148139
C       -1.8612528251   -2.0445185838   -0.8840424347
C        2.4243651683    3.1724951476    2.6026901707
C        1.1473697366    2.4335993016    2.2450525522
N       -1.7378677674   -0.1233127087    0.5838041110
N       -0.5878762127    0.0177042198   -1.4191705222
O        1.3296762985    1.8703564052    0.9376767938
S        1.9877640384    0.6481309730   -1.7780929136
H       -1.1507244648    1.3101689822    1.9791423269
H       -2.1051496207   -2.2504507345   -1.9324754508
H       -2.6929313224   -2.3573326455   -0.2519234899
H       -0.9736163790   -2.6315260943   -0.6224622795
H        3.2765080779    2.4874198358    2.6064122429
H        2.6236034044    3.9683558498    1.8799168397
H        2.3286453676    3.6188241383    3.5976662871
H        0.2866462537    3.1154049187    2.2328804123
H        0.9387667768    1.6275861746    2.9614002827
H       -0.4463502848   -0.3923958053   -2.3405605710
21   
Generated by ForceBalance from scan.xyz: Frame 5 of 13
C       -0.9552886617    0.9343943142    0.9733690575
C        0.2762284360    1.1531801054    0.3844398037
C        0.5276261410    0.5710163848   -0.9344368918
C       -1.5998777260   -0.5487974015   -0.6554333616
C       -1.7433355628   -2.0414494790   -0.8096181559
C        2.4341303889    3.0803556844    2.6130304215
C        1.1276554644    2.4102523246    2.2277304035
N       -1.8073221216   -0.0571283878    0.5371913010
N       -0.6875631263    0.1254227914   -1.4681606494
O        1.3038430151    1.8452116182    0.9199756327
S        1.9315252606    0.5964354020   -1.8043691975
H       -1.2296033661    1.4047018017    1.9115293392
H       -1.9412915819   -2.3715574101   -1.8357388207
H       -2.5323120374   -2.4071935916   -0.1516196988
H       -0.7852763367   -2.4711304077   -0.4949768938
H        3.2496985476    2.3522572559    2.6288547453
H        2.6876797328    3.8684648485    1.8988114326
H        2.3428152724    3.5263234906    3.6085802135
H        0.3036571511    3.1356218931    2.2040677195
H        0.8640942081    1.6119140791    2.9344510338
H       -0.5586395063   -0.2803451209   -2.3939050681
21   
Generated by ForceBalance from scan.xyz: Frame 6 of 13
C       -1.0260678105    0.9983658973    0.9118168611
C        0.2258920562    1.1653289721    0.3429476437
C        0.4656340714    0.5796200726   -0.9817996515
C       -1.6638928286   -0.5112193203   -0.7028972735
C       -1.6107247221   -2.0227335257   -0.7138368226
C        2.4359897529    2.9740760245    2.6189249982
C        1.1046143464    2.3730362799    2.2061712828
N       -1.8770147431    0.0028330284    0.4840093459
N       -0.7785179103    0.2141455280   -1.5159687962
O        1.2755250181    1.8056169546    0.8982861492
S        1.8681611462    0.5601127668   -1.8478243502
H       -1.3039829506    1.4883148952    1.8387305546
H       -1.7391787558   -2.4800185228   -1.7014495469
H       -2.3550340752   -2.4233243512   -0.0251041569
H       -0.6077114389   -2.2763735017   -0.3501570453
H        3.2131925420    2.2054589946    2.6462603664
H        2.7425394860    3.7514316981    1.9137581269
H        2.3487586287    3.4198840351    3.6149002379
H        0.3191445849    3.1393714456    2.1710735653
H        0.7873223837    1.5855415167    2.9028315279
H       -0.6637252106   -0.1801280196   -2.4492894738
21   
Generated by ForceBalance from scan.xyz: Frame 7 of 13
C       -0.3037178159    0.0157199701    1.4691032141
C        0.6081831208    0.6452949018    0.6378607957
C        0.8396581795    0.0708927632   -0.6932918695
C       -1.0400133761   -1.3598404829   -0.2216575977
C       -2.2061952651   -1.2126580232   -1.1734868229
C        1.9442068180    3.6429512756    2.2395059994
C        1.0959108718    2.3847919205    2.1994576988
N       -1.2551589163   -0.8430897230    0.9637111592
N        0.2683247119   -1.2098000282   -0.7083480030
O        1.3053933979    1.7649618891    0.9213081110
S        1.8005983351    0.6521213063   -1.9000349004
H       -0.4486354774    0.3247081667    2.4986568935
H       -2.1484918153   -0.1803987994   -1.5391957135
H       -3.1432373323   -1.3511044162   -0.6334805384
H       -2.1788063230   -1.8818917812   -2.0408764914
H        3.0024028005    3.3978664671    2.1143280423
H        1.6512149225    4.3301311984    1.4410681681
H        1.8135131909    4.1478360509    3.2019670150
H        0.0290127482    2.6169633602    2.3177045696
H        1.3871104554    1.6865238768    2.9951263098
H        0.4232078611   -1.6585663023   -1.6107539591
21   
Generated by ForceBalance from scan.xyz: Frame 8 of 13
C       -0.3520958334    0.1138360324    1.4387137168
C        0.6011277626    0.7112148511    0.6350702867
C        0.8376629864    0.1493294789   -0.6953007736
C       -1.0640808223   -1.2776009795   -0.2421581210
C       -2.2337149191   -1.3743269096   -1.1881832165
C        2.0299783821    3.6300262333    2.3012303107
C        1.1253058550    2.4133638324    2.2259211527
N       -1.2970776247   -0.7512277286    0.9307735793
N        0.2150258245   -1.1022946832   -0.7718468669
O        1.3388217682    1.7976040718    0.9469424979
S        1.8363994347    0.7259361901   -1.8778452811
H       -0.5160474307    0.4339722791    2.4620489367
H       -2.3119020645   -0.3944061223   -1.6731000269
H       -3.1482202851   -1.5693451392   -0.6270571710
H       -2.1178295589   -2.1313061836   -1.9721694197
H        3.0784810538    3.3367836401    2.2004185996
H        1.7902324086    4.3374849595    1.5027610410
H        1.8978856110    4.1314172338    3.2653380034
H        0.0678849634    2.6948901505    2.3200831409
H        1.3628743181    1.6946729962    3.0213699647
H        0.3633699653   -1.5344375868   -1.6826257050
21   
Generated by ForceBalance from scan.xyz: Frame 9 of 13
C       -0.4056414019    0.2114550598    1.3971386559
C        0.5875007352    0.7751049092    0.6209631581
C        0.8349427362    0.2234061308   -0.7066144985
C       -1.0967111673   -1.1910117364   -0.2779873728
C       -2.2522791151   -1.5125423169   -1.1859521745
C        2.1032577812    3.6091968211    2.3549744793
C        1.1442510161    2.4377536639    2.2426528351
N       -1.3410667223   -0.6630950296    0.8898514805
N        0.1498650643   -0.9857687912   -0.8500562536
O        1.3615851054    1.8269250814    0.9622764228
S        1.8890427881    0.7825235262   -1.8543419376
H       -0.5878709739    0.5444384647    2.4133785065
H       -2.4604677029   -0.6089036270   -1.7699001582
H       -3.1313191073   -1.7609649146   -0.5903925658
H       -2.0476330022   -2.3285738441   -1.8883182337
H        3.1389243439    3.2672870311    2.2776184435
H        1.9182523161    4.3349735278    1.5584125964
H        1.9698522277    4.1067375933    3.3208966141
H        0.0995181538    2.7691054784    2.3138265383
H        1.3268680249    1.7002892205    3.0355268676
H        0.2981265053   -1.4049878325   -1.7662687234
21   
Generated by ForceBalance from scan.xyz: Frame 10 of 13
C       -0.4617459646    0.2964440029    1.3510318502
C        0.5734461486    0.8222256075    0.6052003776
C        0.8369932124    0.2755602707   -0.7182415279
C       -1.1275472424   -1.1201224605   -0.3182261294
C       -2.2570439571   -1.6419889279   -1.1614435535
C        2.1646624960    3.5736226803    2.4043164827
C        1.1547246248    2.4500647233    2.2549588621
N       -1.3843490775   -0.5909378139    0.8455805856
N        0.0825895064   -0.8765842088   -0.9327074567
O        1.3824119034    1.8367716525    0.9776707956
S        1.9560054331    0.8041947743   -1.8225930268
H       -0.6663185537    0.6476612914    2.3568147664
H       -2.6024958092   -0.8236037643   -1.8030188913
H       -3.0794497228   -1.9566976707   -0.5185404947
H       -1.9637832502   -2.4765597585   -1.8081196601
H        3.1846444588    3.1827892278    2.3557631488
H        2.0388869446    4.3116459928    1.6074911278
H        2.0258254381    4.0716785322    3.3692165015
H        0.1255749668    2.8313588027    2.2966974069
H        1.2773286385    1.7004382738    3.0480685795
H        0.2399438275   -1.2872354670   -1.8507199062
21   
Generated by ForceBalance from scan.xyz: Frame 11 of 13
C       -0.5159688638    0.3962197653    1.3007924473
C        0.5526691673    0.8870237597    0.5807508338
C        0.8252709311    0.3418484425   -0.7381607344
C       -1.1728946209   -1.0252080514   -0.3659829196
C       -2.2431949611   -1.7353633843   -1.1442324102
C        2.2226527756    3.5458059833    2.4457643453
C        1.1653312475    2.4723859701    2.2599065983
N       -1.4281790568   -0.5027728510    0.8008245571
N        0.0047092308   -0.7465704577   -1.0177412792
O        1.3927052639    1.8653195927    0.9796808691
S        2.0045014730    0.8309892919   -1.8018215701
H       -0.7350243235    0.7607469613    2.2988502683
H       -2.6869966976   -1.0324174424   -1.8581675063
H       -3.0212343472   -2.0794018100   -0.4625043705
H       -1.8557768328   -2.5901710758   -1.7093647542
H        3.2241859031    3.1083018711    2.4147337923
H        2.1493698152    4.2980009733    1.6556884420
H        2.0851419622    4.0385643501    3.4135703555
H        0.1544766672    2.9011174601    2.2850505069
H        1.2355755308    1.7079547145    3.0452682383
H        0.1604710837   -1.1532822048   -1.9373729416
21   
Generated by ForceBalance from scan.xyz: Frame 12 of 13
C       -0.5686326170    0.4746239737    1.2508394297
C        0.5219784571    0.9387744763    0.5468095269
C        0.7997094489    0.3962576438   -0.7708779227
C       -1.2182356123   -0.9534245510   -0.4120900111
C       -2.2213452057   -1.8300824318   -1.1058076988
C        2.2703474298    3.5017180672    2.4731564624
C        1.1716698302    2.4767824044    2.2560502473
N       -1.4663366186   -0.4438811607    0.7621930221
N       -0.0871079265   -0.6182781564   -1.1098300631
O        1.3872737488    1.8858199944    0.9663334958
S        2.0319017024    0.8400591158   -1.7965318163
H       -0.7967225834    0.8505722064    2.2426064580
H       -2.7210670021   -1.2671089448   -1.9022548773
H       -2.9706481376   -2.1550240291   -0.3842338057
H       -1.7536393851   -2.7108302529   -1.5592887071
H        3.2532381914    3.0238618804    2.4418905368
H        2.2356991054    4.2720366974    1.6980503785
H        2.1437581418    3.9802473884    3.4495557674
H        0.1794723957    2.9471258813    2.2803971837
H        1.2018836831    1.6946867813    3.0264684528
H        0.0730849318   -1.0228318297   -2.0294032408
21   
Generated by ForceBalance from scan.xyz: Frame 13 of 13
C       -0.6125278280    0.5555340893    1.2081259185
C        0.4998000616    0.9916259657    0.5209702638
C        0.7771169777    0.4518363633   -0.7974479210
C       -1.2641605716   -0.8702405778   -0.4561041546
C       -2.1737261920   -1.8946366335   -1.0723745975
C        2.3238911621    3.4545716351    2.5063537412
C        1.1872464145    2.4788520368    2.2599515783
N       -1.5006195569   -0.3759121323    0.7270153672
N       -0.1760379523   -0.4784038057   -1.1903957532
O        1.3921420926    1.9031144618    0.9616001081
S        2.0563100180    0.8417984624   -1.7879644459
H       -0.8476451591    0.9400786647    2.1949502379
H       -2.5953745050   -1.5311761260   -2.0161847116
H       -2.9876750690   -2.1056442689   -0.3793835228
H       -1.6348432603   -2.8254375713   -1.2819238423
H        3.2871491923    2.9384116484    2.4733803519
H        2.3268695872    4.2408369348    1.7466431783
H        2.2077608934    3.9184783564    3.4910753388
H        0.2148159688    2.9887688408    2.2840187811
H        1.1779037840    1.6819101730    3.0155741219
H       -0.0170728058   -0.8810748789   -2.1109762670
