65

C      2.84467  -10.24466    7.39270
C      1.60821   -8.15083    7.23166
C      1.24377   -6.98944    6.55464
C      2.62809   -7.65790    4.67731
C      2.49257   -9.06887    6.64597
C      3.00102   -8.81260    5.35503
C      1.75953   -6.74276    5.28171
C      0.03733   -5.19395    4.40667
C      2.25501   -4.62997    3.99030
C      0.20225    3.52448   -0.04842
C      1.77328    1.64038   -0.18209
C     -0.01218    1.52499    1.48027
C      2.76469    1.17900    0.88203
C      1.01347    1.05833    2.51542
C      0.04642   -3.92572    3.55384
C     -0.67462   -2.79000    4.29235
C     -0.62144   -4.23111    2.20195
C     -2.64340    6.10602    0.66117
C     -1.02628    4.14981    0.61338
C     -1.40900    5.49432   -0.00953
C      2.50140   -1.40405    3.63774
C      2.03507   -2.52594    2.70306
C      3.05919   -0.21996    2.84377
C      3.94550   -9.79370    4.69589
N      3.10067  -11.18128    8.03544
N      1.36760   -5.56888    4.58115
N      1.48773   -3.68014    3.40977
N      0.63610    2.31349    0.44162
N      2.10312    0.32320    1.87297
O     -0.94275   -5.77021    4.83766
O      0.78456    4.08676   -0.97744
F      4.31190   -9.38364    3.46012
F      5.07769   -9.95631    5.41824
F      3.37658  -11.01508    4.55937
S      3.91180   -4.70338    4.03855
H      1.21482   -8.35219    8.22245
H      0.55866   -6.28343    7.00957
H      3.01395   -7.46366    3.68574
H      2.23982    2.33858   -0.87599
H      1.41511    0.76906   -0.74817
H     -0.49058    0.64279    1.02889
H     -0.78505    2.10849    1.97753
H      3.56275    0.60401    0.40144
H      3.22592    2.06516    1.35690
H      1.39413    1.93760    3.07056
H      0.50850    0.40761    3.23578
H     -0.68429   -1.88358    3.68010
H     -0.18589   -2.56626    5.24445
H     -1.70713   -3.08798    4.49027
H     -0.64299   -3.33650    1.57338
H     -1.64871   -4.56266    2.37173
H     -0.08067   -5.01850    1.66962
H     -2.47278    6.28391    1.72981
H     -3.51652    5.44860    0.57068
H     -2.90381    7.06616    0.20373
H     -0.83397    4.28025    1.68636
H     -1.87137    3.45277    0.54005
H     -1.58792    5.35524   -1.07992
H     -0.55847    6.17859    0.06427
H      3.28830   -1.78747    4.29337
H      1.67630   -1.09039    4.28447
H      1.26966   -2.15126    2.02235
H      2.87557   -2.87113    2.09428
H      3.93701   -0.56076    2.28345
H      3.41448    0.55847    3.54383
