52

C     -3.36581    1.44662   -4.34496
C      1.98927    2.38032    1.66666
C      1.46997    1.90624    0.43799
C      1.78425    1.71398    2.87973
C      0.53821    0.05656    1.59718
C      0.72483    0.72682    0.38657
C     -0.18826   -1.15093    1.82394
C      1.04437    0.52553    2.82970
C     -0.11924   -1.40054    3.17448
C     -0.72179   -1.88660    0.63188
C     -0.53140    1.24620   -1.75397
C     -1.72231   -0.66372   -2.85519
C      0.05112    0.13277   -0.84128
C     -1.82131    0.80716   -2.46756
C     -1.09155   -0.87059   -0.47451
C     -1.35850   -4.98954   -3.34604
C     -1.55441   -3.06258    6.10559
C     -2.07175    1.70172   -3.69799
C     -0.63415   -2.53643    3.99102
C     -1.86262   -3.55648   -3.14144
C     -1.07142   -2.83434   -2.04322
N     -4.39404    1.22988   -4.84382
N      0.65712   -0.40434    3.78436
N     -1.65193   -1.53997   -1.67631
O     -1.11134   -2.02967    5.23742
H      2.56484    3.30252    1.66831
H      1.65390    2.48512   -0.46369
H      2.18747    2.10967    3.80835
H      0.05489   -2.57000    0.27087
H     -1.60313   -2.49323    0.86780
H     -0.73780    2.13951   -1.15627
H      0.21840    1.53482   -2.50085
H     -2.58355   -0.95237   -3.46566
H     -0.82414   -0.78294   -3.49531
H      0.80129   -0.43172   -1.41243
H     -2.67425    0.92983   -1.79190
H     -1.90036   -0.26642   -0.04391
H     -0.29674   -5.00262   -3.61903
H     -1.47377   -5.58642   -2.43379
H     -1.91231   -5.49289   -4.14513
H     -1.88938   -2.58480    7.02862
H     -0.74262   -3.76853    6.33717
H     -2.39297   -3.62192    5.66541
H     -1.28163    1.55082   -4.44286
H     -2.03932    2.75734   -3.40652
H     -1.43697   -3.05063    3.44272
H      0.16286   -3.27529    4.18363
H     -2.92187   -3.56385   -2.85814
H     -1.79291   -3.01487   -4.09039
H     -1.07626   -3.48541   -1.16799
H     -0.01520   -2.73903   -2.36958
H      0.64597   -0.25576    4.78465
