29   

C        1.8452233135   -3.6859425224   -0.9187651697
C        0.8848364943   -3.5530002439    0.0701337846
C        5.3029960072    1.3381228469    0.0192986597
C        5.9503957530    1.1948139980   -1.1981194893
C        2.7224258264   -2.6349551612   -1.1765843654
C        0.7894939104   -2.3548797701    0.7718727607
C        4.2202166039    0.5032626217    0.2715061599
C        5.5085083331    0.2260834638   -2.0997744258
C        2.6735102619   -1.4065386280   -0.4628430914
C        1.6469081890   -1.2660116751    0.5149330792
C        3.7831421112   -0.4293819808   -0.6924102924
C        1.1423131631    1.1626295435    0.3374938814
C        0.8134454304   -0.0250761755    2.5284656662
N        4.4623654186   -0.5743732244   -1.8512594762
N        1.3596323178   -0.0422222072    1.1606562593
H        1.9255407783   -4.6088070353   -1.4819010133
H        0.2020438459   -4.3679118639    0.2818322411
H        5.6366664834    2.0624682263    0.7550543197
H        6.8020040710    1.8136563950   -1.4506890249
H        3.4797252671   -2.8086429936   -1.9328698198
H       -0.0035354373   -2.2640888269    1.5010488390
H        3.7372700039    0.5600036325    1.2359228496
H        6.0337554179    0.1127452352   -3.0408760715
H        1.4035717854    0.9801925627   -0.7093325193
H        1.7522277307    1.9917918903    0.7082920575
H        0.0872195022    1.4515873235    0.3702712152
H        1.0861650160    0.9080745634    3.0308976761
H        1.2252084922   -0.8526483591    3.1149298570
H       -0.2776322305   -0.1103897792    2.5037245438
29   

C        1.8976236219   -3.7418112634   -0.8424185498
C        0.8965256600   -3.5797019904    0.1043807110
C        5.3461013201    1.2351627896    0.1032203274
C        5.8501504595    1.2613566690   -1.1895325387
C        2.7821042284   -2.6957707305   -1.0971301153
C        0.7706769351   -2.3610931190    0.7696276430
C        4.3027267438    0.3543306159    0.3634790268
C        5.3070204123    0.4139197727   -2.1583256734
C        2.6941234735   -1.4565919458   -0.4191014052
C        1.6369080243   -1.2790541895    0.5145080442
C        3.7783665851   -0.4592762850   -0.6577745888
C        1.2515752212    1.1741087776    0.2981881729
C        0.7385737625    0.0136092631    2.4668575879
N        4.3001609627   -0.4334765302   -1.9010752518
N        1.3606837886   -0.0375518182    1.1330089484
H        1.9998398600   -4.6803250146   -1.3752896345
H        0.2066989596   -4.3896014235    0.3124815069
H        5.7543212013    1.8691149207    0.8834908783
H        6.6644286135    1.9239958064   -1.4539002894
H        3.5734382426   -2.8626984686   -1.8199682674
H       -0.0472889224   -2.2520618741    1.4680807581
H        3.8962793991    0.2792843588    1.3634585809
H        5.7173598428    0.4393672084   -3.1610135935
H        1.4709544122    0.9544859364   -0.7511008403
H        1.9463216059    1.9428252253    0.6490590233
H        0.2310742463    1.5669964422    0.3429040799
H        0.9866918774    0.9575504734    2.9619513874
H        1.1139773233   -0.8007224948    3.0947465312
H       -0.3497885831   -0.0681353046    2.3828659562
29   

C        1.9323777959   -3.8049250950   -0.7679771956
C        0.8973155871   -3.6078659359    0.1380807143
C        5.4024380745    1.1178169563    0.1568465375
C        5.7538770191    1.3157012964   -1.1719147373
C        2.8303327745   -2.7701030610   -1.0234772469
C        0.7522298803   -2.3679876923    0.7630144065
C        4.4013519121    0.1898625245    0.4187230793
C        5.1030867828    0.5900265344   -2.1741263282
C        2.7177184600   -1.5199625320   -0.3814660989
C        1.6331032205   -1.2986721885    0.5061115081
C        3.7813441371   -0.5063832564   -0.6318730151
C        1.3402395765    1.1654793630    0.2415849289
C        0.6977619483    0.0518293458    2.3999476136
N        4.1380335550   -0.3043151350   -1.9143957323
N        1.3701986771   -0.0390571710    1.0932340811
H        2.0462626001   -4.7590718287   -1.2697901251
H        0.1960647877   -4.4080575712    0.3455595287
H        5.8891518625    1.6618546145    0.9596626323
H        6.5276442807    2.0235355181   -1.4408012758
H        3.6454534490   -2.9395810994   -1.7189837657
H       -0.0872959054   -2.2340784328    1.4309358075
H        4.0853093648   -0.0099377743    1.4348402858
H        5.3904633898    0.7549000424   -3.2059381127
H        1.5196042090    0.9134762588   -0.8080592143
H        2.0979885728    1.8834943214    0.5682767110
H        0.3538948726    1.6364918797    0.2962232997
H        0.9386865136    1.0045317483    2.8817269709
H        1.0388052669   -0.7511552329    3.0611331681
H       -0.3874909448   -0.0187199630    2.2757045764
29   

C        1.9521186910   -3.8358071191   -0.6827135946
C        0.8841136814   -3.5979699336    0.1761818257
C        5.5059613697    0.9887177045    0.1974812410
C        5.6985272083    1.3633758820   -1.1261355067
C        2.8682999362   -2.8171749038   -0.9402863532
C        0.7262871582   -2.3357131614    0.7540141708
C        4.5333408845    0.0287053685    0.4511352862
C        4.9220548172    0.7770832104   -2.1306922527
C        2.7372984111   -1.5498919047   -0.3437834735
C        1.6264035381   -1.2835485427    0.4945676865
C        3.7936252875   -0.5290809385   -0.6023128492
C        1.4093180327    1.1837246272    0.1769342890
C        0.6682225125    0.1254377412    2.3322039808
N        3.9851715762   -0.1488208023   -1.8783368177
N        1.3749869545   -0.0066500413    1.0475494987
H        2.0744292838   -4.8074378810   -1.1476375154
H        0.1678892105   -4.3847227104    0.3839137427
H        6.0875960919    1.4268895845    1.0019175052
H        6.4417619876    2.1053173515   -1.3891543452
H        3.7055525120   -3.0062493554   -1.6034740610
H       -0.1341892815   -2.1717679226    1.3877685695
H        4.3247565455   -0.2994040648    1.4615737100
H        5.0829522543    1.0826801278   -3.1578816399
H        1.5346179870    0.9010265300   -0.8726694498
H        2.2278382769    1.8479483899    0.4686612853
H        0.4627005823    1.7278859314    0.2505617025
H        0.9116932411    1.0850627968    2.7987778829
H        0.9779011257   -0.6671412924    3.0208149808
H       -0.4141758624    0.0693565080    2.1793536039
29   

C        1.9991514402   -3.8552329700   -0.6173065740
C        0.8983973709   -3.5981278425    0.1942955087
C        5.6666834898    0.8111548662    0.1971944718
C        5.6939051004    1.3925562699   -1.0640869585
C        2.9155261090   -2.8370061360   -0.8771660560
C        0.7113022578   -2.3192674020    0.7259606027
C        4.6976418754   -0.1580435501    0.4294025630
C        4.7636760397    0.9938578595   -2.0292311438
C        2.7479762081   -1.5525159347   -0.3314225761
C        1.6123390347   -1.2690391655    0.4639839547
C        3.8007642451   -0.5217667704   -0.5846063487
C        1.3735859764    1.1850483867    0.0906188449
C        0.6378869338    0.1680099794    2.2684200206
N        3.8312553497    0.0582504442   -1.7972424269
N        1.3486094669    0.0160024406    0.9884329004
H        2.1456802702   -4.8411343530   -1.0436011386
H        0.1814220882   -4.3838818361    0.4032384447
H        6.3695526224    1.1015112645    0.9712149987
H        6.4252951352    2.1526033734   -1.3078841886
H        3.7775865560   -3.0387080878   -1.5035232068
H       -0.1688765621   -2.1410941303    1.3281632198
H        4.6138633314   -0.6417798152    1.3940970395
H        4.7959913069    1.4598596455   -3.0070748547
H        1.4187984294    0.8718116617   -0.9566789236
H        2.2334571934    1.8226578443    0.3146928066
H        0.4546592995    1.7675136662    0.2082164049
H        0.8758244884    1.1371367092    2.7179226902
H        0.9498867962   -0.6104784652    2.9718926812
H       -0.4438227778    0.1036420636    2.1142292535
29   

C        2.0277115322   -3.8399206096   -0.5268828431
C        0.8937516330   -3.5635986480    0.2308342287
C        5.8732923672    0.5715718476    0.1201009082
C        5.7549460582    1.3688908717   -1.0109119177
C        2.9431821868   -2.8220562216   -0.7921198388
C        0.6772197860   -2.2681606466    0.7079520147
C        4.8744631297   -0.3696669625    0.3415083683
C        4.6598668908    1.1994908119   -1.8636903528
C        2.7384016235   -1.5168157545   -0.3114322746
C        1.5784643829   -1.2201666268    0.4409067150
C        3.8010539589   -0.4901630182   -0.5520688742
C        1.2019757624    1.1923467810   -0.0190346928
C        0.6259404070    0.2381516929    2.2327677415
N        3.7004877330    0.2889410562   -1.6428202385
N        1.2929231651    0.0708944510    0.9317301172
H        2.2007945495   -4.8406452943   -0.9061328248
H        0.1766884764   -4.3482293767    0.4436865811
H        6.7087949558    0.6782241864    0.8042078885
H        6.4999939840    2.1203090054   -1.2395363723
H        3.8320682875   -3.0408688329   -1.3734631904
H       -0.2223960427   -2.0736302329    1.2756868198
H        4.9052936936   -1.0180958708    1.2075354658
H        4.5817338234    1.8296011381   -2.7418793254
H        1.2106402930    0.8287053091   -1.0509466034
H        2.0331032810    1.8878149138    0.1275990416
H        0.2577225104    1.7273696746    0.1208440618
H        0.8772594568    1.2136930031    2.6605176555
H        0.9627736546   -0.5309793208    2.9350546805
H       -0.4602111333    0.1687680009    2.1166399345
29   

C        2.0655836489   -3.8299075715   -0.4288452745
C        0.8907956128   -3.5332584070    0.2546272700
C        6.0386794133    0.3698761232   -0.0107284460
C        5.8141100748    1.3436557287   -0.9746672682
C        2.9872170835   -2.8155104610   -0.6864011018
C        0.6443294753   -2.2226330293    0.6703158943
C        5.0198560444   -0.5489546421    0.2140198686
C        4.6004175768    1.3608105217   -1.6681903289
C        2.7485589061   -1.4906342462   -0.2763564969
C        1.5531230807   -1.1799265895    0.4123991245
C        3.8190005471   -0.4725845785   -0.5076524980
C        0.9829092320    1.1656678578   -0.1352991079
C        0.6352857109    0.2978677127    2.1948572099
N        3.6235733801    0.4697050989   -1.4463316166
N        1.2369796275    0.1153469617    0.8648404114
H        2.2650689465   -4.8437161534   -0.7569871871
H        0.1677161999   -4.3142396167    0.4604447779
H        6.9693338421    0.3273423292    0.5456047123
H        6.5674443758    2.0889532664   -1.1959364523
H        3.9059803084   -3.0532483104   -1.2110618354
H       -0.2810139225   -2.0086971288    1.1879625941
H        5.1345152896   -1.3299432037    0.9544430844
H        4.4411158255    2.1253294596   -2.4195037631
H        1.0380501144    0.7588828155   -1.1497648239
H        1.7117035623    1.9746862055   -0.0327096143
H       -0.0247850432    1.5722431965   -0.0059972949
H        0.9103175849    1.2769711531    2.5990489465
H        1.0023410956   -0.4662074708    2.8874648532
H       -0.4553908806    0.2293130821    2.1331663115
29   

C        0.8204678054   -2.5556805402   -2.1783463384
C       -0.1010282826   -2.6036773331   -1.1392839327
C        5.8823535413    0.0032284848   -1.0072330008
C        5.6896692309    1.3660165613   -0.8181642696
C        1.9867186754   -1.8081044839   -2.0286313814
C        0.1595979442   -1.9205232635    0.0504596488
C        4.7517995712   -0.8062006722   -1.0042051217
C        4.3948340558    1.8642428455   -0.6404735666
C        2.2570034697   -1.0996067603   -0.8417958165
C        1.3395936364   -1.1733106599    0.2405221439
C        3.4803988700   -0.2467082653   -0.8034165243
C        0.4460943297   -0.1260532315    2.3380885035
C        2.9044939879   -0.6173286618    2.1362457636
N        3.3098066464    1.0782095624   -0.6385770791
N        1.5704318869   -0.5963330767    1.5128819216
H        0.6273346580   -3.0861591621   -3.1038431361
H       -1.0143653638   -3.1774807658   -1.2472576675
H        6.8739484196   -0.4127609241   -1.1534189294
H        6.5297110208    2.0489472301   -0.8109986330
H        2.6838948801   -1.7505877864   -2.8570770864
H       -0.5617824150   -2.0070310791    0.8510439755
H        4.8386648841   -1.8752949029   -1.1487682993
H        4.2611090768    2.9304018115   -0.4998394520
H       -0.3372160616    0.3039976730    1.7057998787
H        0.7826503548    0.6559722857    3.0258336845
H        0.0293520052   -0.9542221595    2.9197750738
H        3.3401370579    0.3859302189    2.1431677111
H        3.5755607230   -1.3001958636    1.6077354051
H        2.8267751788   -0.9813122128    3.1652609478
29   

C        0.9611668082   -2.6128876521   -2.1172832233
C       -0.0102821968   -2.6103509874   -1.1255573765
C        5.9462028956    0.0614462885   -1.1272120053
C        5.7670957633    1.3805232868   -0.7321557824
C        2.1302638794   -1.8772435696   -1.9371131353
C        0.2040965297   -1.8910181361    0.0506737015
C        4.8262023307   -0.7627141201   -1.1259353055
C        4.4956215445    1.8225948554   -0.3555406023
C        2.3613215605   -1.1280225333   -0.7636400196
C        1.3849277220   -1.1540145169    0.2749929348
C        3.5733740465   -0.2628370353   -0.7303870079
C        0.4083675986   -0.0627559960    2.3171792723
C        2.8683034104   -0.5756915691    2.2299597496
N        3.4211507261    1.0226625513   -0.3550344380
N        1.5615120108   -0.5593024160    1.5494464184
H        0.8031420386   -3.1707405355   -3.0333277494
H       -0.9270655719   -3.1732348450   -1.2589000694
H        6.9206230637   -0.3114191705   -1.4257934663
H        6.5998910292    2.0720591633   -0.7139077222
H        2.8549540693   -1.8571910501   -2.7430765700
H       -0.5564921863   -1.9429245548    0.8171563418
H        4.9141600985   -1.8001095518   -1.4209036886
H        4.3713309810    2.8553169501   -0.0516026913
H       -0.3489724363    0.3516976117    1.6443006485
H        0.7221133581    0.7372862123    2.9949221989
H       -0.0328647108   -0.8731754124    2.9058318782
H        3.3096057055    0.4253677965    2.2385620813
H        3.5570219749   -1.2704680045    1.7402411998
H        2.7460426968   -0.9154094789    3.2629885747
29   

C        1.0242147169   -2.7125385133   -2.0523547277
C        0.0181866338   -2.6469573186   -1.1005575069
C        5.9337162700    0.1223499822   -1.2986083982
C        5.7821676799    1.3842220573   -0.7424019539
C        2.1987703322   -1.9877360563   -1.8652193617
C        0.2047793793   -1.8774247465    0.0462713332
C        4.8281771935   -0.7211891031   -1.2815601765
C        4.5522941122    1.7503276256   -0.1915577410
C        2.4117910602   -1.1865116099   -0.7181655487
C        1.3902951325   -1.1512207640    0.2807733150
C        3.6066856804   -0.2966030312   -0.7211571715
C        0.3676230914    0.0320403018    2.2495966931
C        2.7948122069   -0.6251077081    2.2995851225
N        3.4927001344    0.9315758963   -0.1771672848
N        1.5305691024   -0.5334774406    1.5479537960
H        0.8872140703   -3.3075275149   -2.9482263536
H       -0.9038328700   -3.1994261646   -1.2412306395
H        6.8785014045   -0.1950753423   -1.7278841728
H        6.6052357981    2.0873588446   -0.7277744496
H        2.9318733330   -2.0158375012   -2.6622106190
H       -0.5822854386   -1.8834299296    0.7873523428
H        4.9173293551   -1.7186850617   -1.6896139442
H        4.4484711579    2.7376680162    0.2428411384
H       -0.3479043947    0.4458160406    1.5321242719
H        0.6844904165    0.8456215570    2.9094516808
H       -0.1251500461   -0.7397039830    2.8493205472
H        3.2543564597    0.3629783137    2.3981256853
H        3.4996556680   -1.2986008967    1.8029480032
H        2.6058531417   -1.0276524625    3.2993735287
29   

C        1.0751968531   -2.7985034203   -1.9570082623
C        0.0433866210   -2.6735618874   -1.0428384680
C        5.8975175047    0.2212734353   -1.4557996079
C        5.7994423729    1.4059686908   -0.7440192429
C        2.2529186985   -2.0782119212   -1.7736044307
C        0.2086660887   -1.8505321719    0.0668467169
C        4.8055832211   -0.6398680177   -1.4232639583
C        4.6357237034    1.6775905012   -0.0253983978
C        2.4550287211   -1.2195321700   -0.6608442599
C        1.3962359170   -1.1277420378    0.3014249714
C        3.6355797977   -0.3075149943   -0.7014551603
C        0.3299903382    0.1644689454    2.1773461952
C        2.7006414431   -0.6503445667    2.3889597366
N        3.5903264434    0.8419674762    0.0017265140
N        1.4978831606   -0.4777442100    1.5550223859
H        0.9552825818   -3.4349109410   -2.8265246263
H       -0.8816377616   -3.2211674230   -1.1828684744
H        6.7948841305   -0.0279376320   -2.0128170725
H        6.6148218815    2.1180346230   -0.7330245286
H        2.9844272529   -2.1634532471   -2.5655504779
H       -0.5984048098   -1.8125696363    0.7851784405
H        4.8884077734   -1.5801563218   -1.9476362872
H        4.5727355601    2.6026216975    0.5355446018
H       -0.3392765630    0.5669697933    1.4105915358
H        0.6513877039    0.9973135855    2.8103268098
H       -0.2167795113   -0.5581617812    2.7913851852
H        3.1805328085    0.3161111815    2.5710972168
H        3.4217768518   -1.3159227637    1.9048479288
H        2.4286385125   -1.0977125707    3.3497060703
29   

C        1.1245076212   -2.8972431474   -1.8586666816
C        0.0825582339   -2.7387730097   -0.9648156163
C        5.8006965088    0.3909853653   -1.6592767362
C        5.8307639759    1.4145393594   -0.7290113961
C        2.2945540799   -2.1589673493   -1.6989525058
C        0.2334138589   -1.8663624561    0.1056963284
C        4.7151615905   -0.4789829927   -1.6275947201
C        4.7932510820    1.5245924133    0.1924906987
C        2.4829041409   -1.2337196012   -0.6328496113
C        1.4110289171   -1.1211462592    0.3171637431
C        3.6679133062   -0.3207191881   -0.6821049408
C        0.3025004451    0.3176525814    2.0512811350
C        2.5593213366   -0.7047257064    2.4913645625
N        3.7549422636    0.6810903444    0.2162149382
N        1.4684918592   -0.4203819439    1.5427628277
H        1.0221334202   -3.5818157766   -2.6931815158
H       -0.8358854599   -3.3016619523   -1.0864684692
H        6.5965846147    0.2706564581   -2.3870997707
H        6.6475705646    2.1246418991   -0.7065049467
H        3.0282636503   -2.3175677515   -2.4737208798
H       -0.5779233746   -1.8029673234    0.8177844043
H        4.7259605207   -1.2746461485   -2.3534584672
H        4.8257707657    2.3251661964    0.9220870586
H       -0.3254594131    0.6602338847    1.2229423889
H        0.6310923170    1.1989946781    2.6104274200
H       -0.2921502537   -0.3227907105    2.7104511675
H        3.0632573344    0.2230046332    2.7795942856
H        3.2983637011   -1.3774932160    2.0450804696
H        2.1610385344   -1.1888358267    3.3880582163
29   

C        1.2185383462   -2.9899740435   -1.7888563352
C        0.2062773976   -2.8682819462   -0.8540213986
C        5.6132455704    0.6394931628   -1.9216757578
C        5.9287289873    1.3395600150   -0.7703902955
C        2.3506686957   -2.1840671125   -1.6920658864
C        0.3494851898   -1.9577445224    0.1867602810
C        4.5030851871   -0.1978871398   -1.8817856133
C        5.1296858625    1.1841470644    0.3597565855
C        2.5151548490   -1.2122444079   -0.6666934756
C        1.4848189032   -1.1357076651    0.3225339213
C        3.7300446921   -0.3439813381   -0.7017562832
C        0.3314570508    0.5094969765    1.8001264221
C        2.4075629589   -0.6805067512    2.5713587405
N        4.0663923503    0.3719312448    0.3884766887
N        1.4994771418   -0.3203788754    1.4698541109
H        1.1311694961   -3.7129847998   -2.5920501108
H       -0.6803281091   -3.4885367222   -0.9203428795
H        6.2026409628    0.7498922944   -2.8261054231
H        6.7780055591    2.0101458032   -0.7402895052
H        3.1072410017   -2.3569970841   -2.4440593857
H       -0.4344725288   -1.9046432407    0.9304630907
H        4.2417660002   -0.7024313422   -2.7985045624
H        5.3775624732    1.7427580756    1.2546192961
H       -0.2640610866    0.7082596267    0.9034901534
H        0.6584811934    1.4700802737    2.2093862640
H       -0.2992678262    0.0004070702    2.5358766241
H        2.9351938306    0.2079223905    2.9315969262
H        3.1508462709   -1.4111361941    2.2365891538
H        1.8430979209   -1.1245391876    3.3968128153
29   

C        1.2679288593   -3.0448630246   -1.7394478913
C        0.2713158574   -2.9560986028   -0.7796430161
C        5.4248363960    0.8461537681   -1.9373900211
C        5.9274892997    1.2956898837   -0.7266361152
C        2.3735077200   -2.1993130772   -1.6668900747
C        0.3965651735   -2.0283024320    0.2516267711
C        4.3101930431    0.0154988045   -1.8983442230
C        5.3041982428    0.9073235315    0.4596578287
C        2.5180303704   -1.2332908567   -0.6401466605
C        1.5030560572   -1.1656709845    0.3552134321
C        3.7231937656   -0.3583729363   -0.6691720454
C        0.3249215474    0.5796332628    1.6708797788
C        2.3093789832   -0.6316406156    2.6227200124
N        4.2338275198    0.1031775503    0.4870872721
N        1.4955301827   -0.2812276464    1.4473158357
H        1.1894902960   -3.7726125694   -2.5392204359
H       -0.5931291972   -3.6086666381   -0.8249768116
H        5.8766316565    1.1392842236   -2.8794353612
H        6.7906581724    1.9479726303   -0.6902294405
H        3.1386988526   -2.3211964155   -2.4235667523
H       -0.3788763294   -1.9817546694    1.0048838169
H        3.8801043040   -0.3179507686   -2.8321722418
H        5.7024030563    1.2693234295    1.4002236919
H       -0.2276991120    0.7249183831    0.7372114934
H        0.6458699052    1.5614868676    2.0316331751
H       -0.3453563965    0.1259721286    2.4078795697
H        2.8649675891    0.2439756812    2.9716778712
H        3.0273169020   -1.4200049078    2.3748754078
H        1.6692644813   -0.9992607186    3.4304450833
29   

C        1.3276539317   -3.1265608393   -1.6684374791
C        0.3213925357   -3.0288392535   -0.7159204703
C        5.2665340296    1.0029325230   -1.9004759044
C        5.9152767924    1.2700692285   -0.7036368448
C        2.4215731117   -2.2641603820   -1.6068046300
C        0.4208954436   -2.0707812478    0.2929779952
C        4.1583414859    0.1646055768   -1.8514542950
C        5.4403757268    0.6975753091    0.4786816697
C        2.5402204025   -1.2863573189   -0.5942492660
C        1.5156377166   -1.1928646973    0.3818408038
C        3.7219663395   -0.3814695332   -0.6292212033
C        0.3147718513    0.5972577421    1.6075825554
C        2.3034729208   -0.5494121715    2.6253320251
N        4.3741048070   -0.1126235608    0.5161220552
N        1.4987065056   -0.2557628789    1.4282812541
H        1.2637268761   -3.8710584764   -2.4539189218
H       -0.5335028060   -3.6943659869   -0.7530584478
H        5.6059928820    1.4351121797   -2.8361266968
H        6.7822370268    1.9176712629   -0.6742813252
H        3.1991943036   -2.3655444736   -2.3552088203
H       -0.3640995856   -2.0099665380    1.0351996786
H        3.6115844541   -0.0564790885   -2.7583786297
H        5.9566446232    0.9146839671    1.4063776178
H       -0.2156182486    0.7195224381    0.6578430997
H        0.6176703537    1.5891271065    1.9565387682
H       -0.3689359646    0.1517260781    2.3371122002
H        2.8951125904    0.3265086847    2.9074351557
H        2.9860713929   -1.3845427074    2.4383607912
H        1.6526372929   -0.8295748675    3.4592130067
29   

C        1.3641928969   -3.1954182315   -1.6151532798
C        0.3261937978   -3.0600918062   -0.6998193375
C        5.1287156356    1.1360097887   -1.8149923551
C        5.9125744622    1.2292858350   -0.6732062605
C        2.4617547625   -2.3379217126   -1.5440612140
C        0.3962934610   -2.0691189204    0.2811588838
C        4.0227782809    0.2952331823   -1.7604499517
C        5.5693172709    0.4880544167    0.4608969244
C        2.5493869017   -1.3370278212   -0.5557260853
C        1.4956787001   -1.1978159683    0.3785327543
C        3.7216987453   -0.4154451732   -0.5864324380
C        0.2632205525    0.5977927499    1.5701378708
C        2.3254983676   -0.4271249053    2.5694321271
N        4.5030828741   -0.3228282442    0.5039589801
N        1.4718342289   -0.2199657137    1.3880401380
H        1.3202982510   -3.9625349186   -2.3799489451
H       -0.5316334411   -3.7213086023   -0.7452818750
H        5.3666816282    1.6977640738   -2.7123433296
H        6.7859570864    1.8684901406   -0.6504593596
H        3.2643424183   -2.4505334646   -2.2644259472
H       -0.4137653908   -1.9805475069    0.9928276375
H        3.3730332375    0.1895182411   -2.6193574557
H        6.1924780510    0.5688438976    1.3437648748
H       -0.2718131967    0.7047238672    0.6211493968
H        0.5375475238    1.5986116119    1.9173937423
H       -0.4049735273    0.1335498319    2.3023340660
H        2.9558965581    0.4502345800    2.7407508701
H        2.9688001942   -1.3026109773    2.4360446754
H        1.7075267079   -0.6050040272    3.4548387414
29   

C        1.4039617750   -3.2642754954   -1.5760965472
C        0.3264963400   -3.0796402831   -0.7156740247
C        4.9992165485    1.2815312153   -1.6908811753
C        5.9146695963    1.1988237030   -0.6502449527
C        2.5073332580   -2.4157360423   -1.4898751108
C        0.3635830694   -2.0508558872    0.2284986111
C        3.8977449970    0.4349975533   -1.6372236853
C        5.6995923001    0.2863021436    0.3867600476
C        2.5583084555   -1.3783464323   -0.5403298445
C        1.4700021642   -1.1892996477    0.3425913224
C        3.7321844934   -0.4523649052   -0.5630165356
C        0.1926967659    0.5833175140    1.5378445799
C        2.3834242158   -0.2471886270    2.4406829988
N        4.6351801115   -0.5277637429    0.4298529536
N        1.4344398334   -0.1740773405    1.3172646272
H        1.3852529507   -4.0609997873   -2.3110486291
H       -0.5363543617   -3.7332379142   -0.7743239553
H        5.1356592842    1.9781897977   -2.5115450056
H        6.7927704088    1.8317265678   -0.6326149415
H        3.3407486282   -2.5574310009   -2.1690285326
H       -0.4772850320   -1.9315606230    0.8983676367
H        3.1480828211    0.4547431927   -2.4175629953
H        6.4244595772    0.2315438756    1.1904406134
H       -0.3670775542    0.6786894240    0.6019981548
H        0.4272442866    1.5916381585    1.8927135241
H       -0.4352521783    0.0794523187    2.2793809006
H        3.0370636843    0.6296576945    2.4457973598
H        2.9962885362   -1.1514423117    2.3746895962
H        1.8400647487   -0.2952498676    3.3893144029
29   

C        1.4309652436   -3.3494776478   -1.5145592124
C        0.3202465945   -3.1137592544   -0.7101069225
C        4.8668683351    1.4334949712   -1.4676819171
C        5.9028796092    1.1661446737   -0.5821367889
C        2.5372174791   -2.5052341583   -1.4251361493
C        0.3284614894   -2.0421827534    0.1867498821
C        3.7700533817    0.5798041420   -1.4389823444
C        5.8049734096    0.0742619422    0.2858596735
C        2.5532663036   -1.4205297239   -0.5308131465
C        1.4388224997   -1.1851560542    0.3065367206
C        3.7324648196   -0.4984879779   -0.5440002479
C        0.1293507225    0.5682513028    1.5127258078
C        2.4365209167   -0.0602528773    2.2845377686
N        4.7432194702   -0.7445978075    0.3071445598
N        1.3947136168   -0.1339502816    1.2457649330
H        1.4358047985   -4.1820117042   -2.2088937481
H       -0.5452160911   -3.7635009247   -0.7728598510
H        4.9092500713    2.2737307300   -2.1529924961
H        6.7847759369    1.7934765128   -0.5555125953
H        3.3981834304   -2.6833569797   -2.0599289965
H       -0.5377737863   -1.8927734885    0.8166717706
H        2.9274140964    0.7365842399   -2.0998802681
H        6.6216046157   -0.1207958426    0.9710050401
H       -0.4582958687    0.6567026441    0.5934426356
H        0.3315678628    1.5798882153    1.8781235309
H       -0.4559589397    0.0281891765    2.2635621324
H        3.0791010498    0.8096214781    2.1221689386
H        3.0478353788   -0.9676918007    2.2869320350
H        1.9752844387    0.0142439675    3.2740532225
29   

C        1.4812520824   -3.4271056249   -1.4971660780
C        0.3422096574   -3.1545380914   -0.7456834271
C        4.7923000075    1.5556401156   -1.1829021429
C        5.9258304580    1.1182126228   -0.5095725424
C        2.5857938606   -2.5812709848   -1.4043530861
C        0.3217873899   -2.0480461087    0.1077675122
C        3.6942679637    0.7033639364   -1.1991560343
C        5.9184359884   -0.1322512672    0.1165780092
C        2.5690204850   -1.4542970481   -0.5644046727
C        1.4305544742   -1.1887652107    0.2332051341
C        3.7544909867   -0.5434834537   -0.5614832982
C        0.0903205639    0.5489693303    1.4393261126
C        2.4607430693    0.0688823679    2.1241979304
N        4.8546742695   -0.9487047579    0.0968684957
N        1.3722041080   -0.1126551923    1.1467091332
H        1.5101304605   -4.2900076013   -2.1527318503
H       -0.5219981416   -3.8055453698   -0.8124128334
H        4.7618324439    2.5227191761   -1.6740917692
H        6.8141534262    1.7351651345   -0.4617054266
H        3.4710715463   -2.7889613257   -1.9953727314
H       -0.5656083309   -1.8785064772    0.7018178839
H        2.7755606466    0.9882555380   -1.6956140963
H        6.8095045112   -0.4571266005    0.6408256537
H       -0.5154893107    0.6240408299    0.5306895487
H        0.2666178944    1.5648960229    1.8063214855
H       -0.4640888651   -0.0119661170    2.1982698930
H        3.0448265890    0.9624640556    1.8865276738
H        3.1222259448   -0.8024640159    2.1378855254
H        2.0464496091    0.1685997760    3.1321351045
29   

C        1.5072461534   -3.4754030722   -1.4355061629
C        0.3465821353   -3.1716470571   -0.7316040638
C        4.7624618221    1.6086906610   -0.9503006411
C        5.9623647497    1.0600953501   -0.5159431374
C        2.6103103643   -2.6280801334   -1.3425161462
C        0.3043815204   -2.0345085875    0.0790739856
C        3.6503845757    0.7749936406   -0.9633970804
C        6.0051504269   -0.2786146432   -0.1137102385
C        2.5725415070   -1.4650597727   -0.5519680131
C        1.4116272999   -1.1728724273    0.2061564846
C        3.7603927920   -0.5630052642   -0.5562964852
C        0.0469805228    0.5747547378    1.3740189839
C        2.4195143380    0.1379833399    2.0773595889
N        4.9277628051   -1.0771936326   -0.1290380705
N        1.3371424994   -0.0787038496    1.0987540381
H        1.5546464101   -4.3635995869   -2.0552165126
H       -0.5167759389   -3.8236569805   -0.7994691608
H        4.6928443140    2.6448406970   -1.2648769305
H        6.8647706092    1.6573126986   -0.4835976189
H        3.5119775076   -2.8613247188   -1.8985312200
H       -0.5992369854   -1.8458691117    0.6419529576
H        2.6823665982    1.1426635486   -1.2794875865
H        6.9486036925   -0.6902762683    0.2251508791
H       -0.5544683823    0.6304629706    0.4610994515
H        0.2109489819    1.5976722657    1.7270133035
H       -0.5060874668    0.0197081843    2.1383047770
H        2.9407633676    1.0769243817    1.8700824672
H        3.1411144367   -0.6842734661    2.0556201325
H        2.0060522659    0.1736737346    3.0899749392
29   

C        1.5888516464   -3.5243918564   -1.3927983595
C        0.3970825648   -3.2066379771   -0.7526322477
C        4.7872719212    1.6269806903   -0.7861014712
C        6.0203853898    1.0231803150   -0.5781510598
C        2.6832741162   -2.6695528490   -1.2746198700
C        0.3163171404   -2.0486411436    0.0228445744
C        3.6652623000    0.8069716813   -0.7623589566
C        6.0861936397   -0.3559651091   -0.3584638873
C        2.6133393498   -1.4811213530   -0.5192632552
C        1.4142511182   -1.1789612701    0.1763363394
C        3.7949077585   -0.5726548544   -0.5330450299
C       -0.0048871122    0.5728188300    1.2729743072
C        2.3312565683    0.1372269103    2.0880127344
N        4.9995270539   -1.1416617424   -0.3372071845
N        1.2978747229   -0.0784533003    1.0571315423
H        1.6673433466   -4.4282992556   -1.9860695559
H       -0.4603902197   -3.8638640481   -0.8415256081
H        4.7004829832    2.6940948465   -0.9624944684
H        6.9317555372    1.6074573092   -0.5865766832
H        3.6036349983   -2.9174209312   -1.7926618311
H       -0.6117684299   -1.8514213550    0.5411265278
H        2.6764199951    1.2187273590   -0.9202967336
H        7.0564379738   -0.8118519763   -0.1997156690
H       -0.5701511302    0.6148689644    0.3365075280
H        0.1410036097    1.6004569369    1.6200682843
H       -0.5856776921    0.0244119127    2.0213848573
H        2.8098838751    1.1112625679    1.9515145204
H        3.0976488322   -0.6429453566    2.0503957561
H        1.8788901793    0.0972874656    3.0837464656
29   

C        1.6298255571   -3.5472801427   -1.3071590331
C        0.4174632034   -3.2092297559   -0.7233936416
C        4.8332638906    1.6366265973   -0.6564600492
C        6.0670054901    1.0015560362   -0.6803200117
C        2.7221847876   -2.6928292848   -1.1728786577
C        0.3149709601   -2.0310646000    0.0147142719
C        3.7030427845    0.8320038453   -0.5703258953
C        6.1253966771   -0.3932090757   -0.6260031669
C        2.6407901632   -1.4782233734   -0.4509408423
C        1.4099696900   -1.1605062222    0.1859902477
C        3.8225811650   -0.5678858160   -0.4941455884
C       -0.0449975165    0.6099494115    1.2047929136
C        2.2379048326    0.1412470236    2.1437565704
N        5.0313623952   -1.1640240481   -0.5426286053
N        1.2600257608   -0.0562191569    1.0567090163
H        1.7265669146   -4.4660594890   -1.8743405927
H       -0.4390395563   -3.8656346055   -0.8265327132
H        4.7510428757    2.7171506265   -0.7118521902
H        6.9837357892    1.5733064569   -0.7491405399
H        3.6478818880   -2.9686145504   -1.6664348318
H       -0.6304782186   -1.8192866490    0.4943687004
H        2.7186975991    1.2812453125   -0.5765111597
H        7.0957261744   -0.8749216175   -0.6547061631
H       -0.5708527164    0.6372238288    0.2450834865
H        0.0953656665    1.6431406441    1.5372327083
H       -0.6613929625    0.0812025939    1.9387933439
H        2.6805122006    1.1397251922    2.0818070237
H        3.0395154584   -0.6021008921    2.0968091465
H        1.7444863149    0.0282440700    3.1140932173
29   

C        1.6739354277   -3.5814767349   -1.2154307162
C        0.4449273237   -3.2189527373   -0.6899607368
C        4.9048736971    1.6314224896   -0.5341876958
C        6.1078253635    0.9917777739   -0.7900617394
C        2.7662410406   -2.7290748517   -1.0712111956
C        0.3271881579   -2.0187358815    0.0048145816
C        3.7742362602    0.8355657844   -0.3883044283
C        6.1342123392   -0.3984757710   -0.9046639227
C        2.6785006656   -1.4835039619   -0.3918546848
C        1.4210212341   -1.1488034358    0.1879897535
C        3.8612798843   -0.5702685624   -0.4669861187
C       -0.0577084966    0.6535355129    1.1119531584
C        2.1410575188    0.1150885528    2.2050959283
N        5.0405885380   -1.1601828051   -0.7607882054
N        1.2385900679   -0.0429819792    1.0487959388
H        1.7848610264   -4.5180879434   -1.7499457896
H       -0.4120133597   -3.8731963035   -0.8027405044
H        4.8429639612    2.7125542527   -0.4658445160
H        7.0219829151    1.5576812821   -0.9168054763
H        3.6933315265   -3.0440217141   -1.5369960377
H       -0.6321101036   -1.7889658114    0.4473034449
H        2.8182302542    1.3171956337   -0.2447151628
H        7.0779016979   -0.8850437952   -1.1216950932
H       -0.5367984433    0.6595771731    0.1276741028
H        0.0886365577    1.6939064931    1.4182149574
H       -0.7200431941    0.1605840474    1.8307352761
H        2.5423205071    1.1323858097    2.2381851224
H        2.9786313535   -0.5871775213    2.1534271050
H        1.5969443690   -0.0856176279    3.1332375464
29   

C        1.7759619063   -3.6107622977   -1.0068551923
C        0.8435593288   -3.4940553405    0.0081143264
C        5.2567074381    1.4652705335   -0.0953267919
C        6.0568918139    1.1373291159   -1.1762932293
C        2.6686678397   -2.5695434483   -1.2501785227
C        0.7900190941   -2.3181157912    0.7475285808
C        4.1396353773    0.6720679553    0.1438488694
C        5.7265953641    0.0322360656   -1.9572725411
C        2.6706005399   -1.3604149045   -0.4942375382
C        1.6638153730   -1.2388202536    0.5075315017
C        3.8096242397   -0.4083300550   -0.7081950655
C        0.9819330399    1.1337898708    0.3878056013
C        0.9658890830   -0.0611519056    2.6018847194
N        4.6464128405   -0.7251895002   -1.7228922329
N        1.3816632217   -0.0378770636    1.1890073540
H        1.8237533529   -4.5149182511   -1.6030869141
H        0.1491032343   -4.3016974659    0.2094438173
H        5.5009938775    2.2995814454    0.5539748903
H        6.9415733566    1.7157963297   -1.4100525858
H        3.3941006794   -2.7467626645   -2.0358375493
H        0.0141328562   -2.2308347846    1.4956736427
H        3.5654741185    0.8959079242    1.0266424663
H        6.3702595683   -0.2285630675   -2.7891729794
H        1.3217078374    1.0358233516   -0.6479236821
H        1.4189707118    2.0458157499    0.8056423120
H       -0.1083768426    1.2286209869    0.3811620243
H        1.3142367764    0.8425683828    3.1111430983
H        1.4014148316   -0.9244410450    3.1151920914
H       -0.1248909061   -0.1162207217    2.6764419126
