29   

C        2.3220056953   -3.3713153044    0.4960856292
C        3.1980987897   -2.5967793708    1.2589490291
C        0.9445131545   -3.2466186407    0.6856205979
C        2.6974110174   -1.7147395468    2.2231506994
C        0.4430494120   -2.3633997147    1.6479499412
C       -0.1733531791   -3.4794185605    5.7544468092
C        0.4098260201   -4.7286295891    5.9782415548
C       -1.1143464488   -4.3114960267    3.6965884732
C        1.3108384069   -1.6114618286    2.4591259217
C       -0.9290602490   -3.2543779244    4.5998910705
C        0.2457887682   -5.7761638675    5.0634961102
C       -0.5294564685   -5.5650993863    3.9089482015
C        0.8672672910   -0.6482524085    3.4698439638
C       -0.3002261262   -0.4753195610    4.1185626354
O       -2.5075404281   -1.6521661478    3.0642590926
O       -2.4798290583   -1.2135973604    5.4586739250
S       -1.6897845142   -1.6260970772    4.2885707142
Cl       1.0007440431   -7.3234805378    5.3776841297
Cl      -0.7754745185   -6.8391752110    2.7340689772
H        2.7082428445   -4.0565241265   -0.2504010064
H        4.2678108691   -2.6790983240    1.1025216189
H        0.2596682537   -3.8253174662    0.0757724629
H        3.3994856364   -1.1232240420    2.8001523480
H       -0.6285402114   -2.2556247628    1.7179125708
H       -0.0402293852   -2.6824326889    6.4809621547
H        0.9977693197   -4.8947430567    6.8730812847
H       -1.7230560683   -4.1644227492    2.8087576309
H        1.6254189880    0.0750432257    3.7524033958
H       -0.4374725023    0.4184996869    4.7082056976
29   

C        2.1688333362   -3.5528025552    0.6819309556
C        3.0575576803   -2.9056575113    1.5439574893
C        0.8156315902   -3.2072309757    0.6939565190
C        2.5900918421   -1.9283867277    2.4300300133
C        0.3474808406   -2.2302778716    1.5793948651
C       -0.1068639243   -3.4261883900    5.7115845784
C        0.5518707119   -4.6442523729    5.8954184161
C       -0.9823594394   -4.2416654559    3.6188194536
C        1.2209392305   -1.6029353583    2.4840970223
C       -0.8670837163   -3.2074248797    4.5590218603
C        0.4602313302   -5.6659162892    4.9417845809
C       -0.3208081498   -5.4626065677    3.7899866735
C        0.7885850688   -0.5637590292    3.4267177528
C       -0.3743241938   -0.4020685206    4.0822573255
O       -2.5500290318   -1.6655012689    3.0763054386
O       -2.4862166294   -1.2413408740    5.4753894090
S       -1.7081014400   -1.6124482792    4.2834364221
Cl       1.3133217871   -7.1713988502    5.2033751718
Cl      -0.4757996856   -6.7037430030    2.5653384427
H        2.5293681250   -4.3123781484   -0.0029062748
H        4.1108037757   -3.1622393611    1.5259737872
H        0.1270522839   -3.6895673877    0.0090937806
H        3.2962029758   -1.4382125999    3.0909536420
H       -0.6971973164   -1.9509664248    1.5312091922
H       -0.0263131919   -2.6474944595    6.4651498246
H        1.1447257592   -4.8053468432    6.7878489378
H       -1.5898955086   -4.0980194998    2.7297017651
H        1.5488908944    0.1716655729    3.6695139828
H       -0.5408717826    0.5036682615    4.6453599231
29   

C        1.9549151358   -3.7091538764    0.8288070902
C        2.8092314956   -3.2514097519    1.8358162202
C        0.7022450359   -3.1144001967    0.6569598633
C        2.4073416923   -2.2072085649    2.6767166036
C        0.2978314414   -2.0742028808    1.5007866489
C       -0.0856478876   -3.3881518775    5.6851010506
C        0.6451907840   -4.5678994894    5.8469829940
C       -0.8671317983   -4.1929770099    3.5515170615
C        1.1372304989   -1.6222771799    2.5329554373
C       -0.8332822737   -3.1812850612    4.5220950533
C        0.6382097244   -5.5628835743    4.8611525934
C       -0.1337073020   -5.3750247632    3.7008701746
C        0.7369044206   -0.5324933946    3.4406843584
C       -0.4296955076   -0.3681635046    4.0831935455
O       -2.5434760675   -1.6832927810    3.0238444776
O       -2.5425220858   -1.2830474338    5.4335251147
S       -1.7324345257   -1.6162320937    4.2515431032
Cl       1.5875489491   -7.0148698063    5.0914767088
Cl      -0.1829501356   -6.5838059608    2.4356082245
H        2.2646893298   -4.5200697935    0.1788862237
H        3.7838601486   -3.7080946318    1.9659819177
H        0.0419925748   -3.4571529348   -0.1319863343
H        3.0802972629   -1.8656318384    3.4551399574
H       -0.6704230674   -1.6121859087    1.3394572969
H       -0.0650281842   -2.6267634568    6.4600258164
H        1.2317329581   -4.7180890113    6.7454444565
H       -1.4588056412   -4.0561596961    2.6507195496
H        1.5147256091    0.1854043804    3.6802553026
H       -0.6160014924    0.5356407944    4.6429341894
29   

C        1.8470415358   -3.7480609771    0.8906263576
C        2.6266529394   -3.3936798172    1.9956230220
C        0.6928443841   -3.0187493292    0.5912307328
C        2.2526323354   -2.3112453346    2.8003170364
C        0.3159872870   -1.9403983980    1.3991224935
C       -0.0781126902   -3.3634551792    5.6551664585
C        0.6730528648   -4.5294367882    5.8248937436
C       -0.8015848709   -4.1711231554    3.5019635414
C        1.0907881315   -1.5767877120    2.5123706319
C       -0.8077022309   -3.1650507840    4.4790624017
C        0.7022429964   -5.5202299308    4.8352926931
C       -0.0519676827   -5.3419452069    3.6619462821
C        0.6919943487   -0.4564548508    3.3922654672
C       -0.4509102876   -0.3416796510    4.0807140972
O       -2.5003456699   -1.6861456569    2.9417217509
O       -2.5850131775   -1.3127547502    5.3565297312
S       -1.7321622221   -1.6162467420    4.1967303008
Cl       1.6751367709   -6.9547829908    5.0765518630
Cl      -0.0588459679   -6.5489693768    2.3939208727
H        2.1348774245   -4.5885856749    0.2688350183
H        3.5194962851   -3.9617509440    2.2311862120
H        0.0853134201   -3.2896645621   -0.2651285707
H        2.8615255713   -2.0518905606    3.6590000708
H       -0.5844395149   -1.3837700277    1.1580033522
H       -0.0863142950   -2.6056908692    6.4338275279
H        1.2466128512   -4.6725046974    6.7329059484
H       -1.3746222453   -4.0381146039    2.5885948386
H        1.4530052018    0.2933522737    3.5829811041
H       -0.6456095898    0.5391056741    4.6731934460
29   

C        2.0812643425   -3.2008718095    0.8074136030
C        2.3630965782   -3.9910362184    1.9260918599
C        1.8244517897   -1.8357503220    0.9664061087
C        2.3931614368   -3.4154900668    3.2016116832
C        1.8527146826   -1.2614940886    2.2420048287
C       -0.8249579512   -3.9144594037    4.9266814564
C       -0.9392733849   -5.1886792200    4.3642042083
C       -1.0269842521   -2.9506481482    2.7257599099
C        2.1472752585   -2.0436623913    3.3688127183
C       -0.8487995468   -2.7819919107    4.1067158760
C       -1.0925267486   -5.3570375506    2.9821489274
C       -1.1463484903   -4.2223033887    2.1533359388
C        2.1380856025   -1.4559277123    4.7318931350
C        1.0608777457   -1.0821932333    5.4302754968
O       -0.8100273247   -0.0828866532    3.7617217194
O       -1.5529480494   -0.9114612976    5.9397598437
S       -0.6372767094   -1.1084609756    4.8050389849
Cl      -1.2112237723   -6.9708492826    2.3155808384
Cl      -1.3458954101   -4.3719225909    0.4204428541
H        2.0531289753   -3.6474436442   -0.1803914561
H        2.5505571964   -5.0519629639    1.8050241083
H        1.5965023816   -1.2211935010    0.1026049169
H        2.6000169375   -4.0396997773    4.0635249915
H        1.6361277089   -0.2040215173    2.3590373960
H       -0.7087576320   -3.8048655402    6.0014300628
H       -0.9079689008   -6.0636248297    5.0025875982
H       -1.0585754540   -2.0797586798    2.0768887639
H        3.0902047984   -1.4458306222    5.2525561534
H        1.1602105657   -0.7227888388    6.4429870898
29   

C        2.1000069994   -3.2793192889    0.8611411698
C        2.2728394305   -4.0141884994    2.0381577147
C        1.9395254130   -1.8916875028    0.9241414816
C        2.2877670053   -3.3612636486    3.2760795398
C        1.9575757539   -1.2397569548    2.1622229121
C       -0.7993053278   -3.9544823668    4.9175872108
C       -0.9078713433   -5.2112781703    4.3153919834
C       -1.0269133153   -2.9231094004    2.7495176640
C        2.1401816937   -1.9678322427    3.3463124774
C       -0.8393662088   -2.7967776599    4.1339284854
C       -1.0729238065   -5.3368074422    2.9299868596
C       -1.1430342480   -4.1768091412    2.1381745004
C        2.1264060470   -1.2895134311    4.6700026622
C        1.0602188145   -1.0368348903    5.4342764506
O       -0.9286198192   -0.0925640780    3.8835374464
O       -1.5321066833   -1.0225169047    6.0613925643
S       -0.6601556878   -1.1414302866    4.8820550809
Cl      -1.1860490179   -6.9293318667    2.2131631970
Cl      -1.3591888220   -4.2727330015    0.4034383906
H        2.0810473116   -3.7856094552   -0.0976622815
H        2.3854950049   -5.0914522507    1.9915504432
H        1.7953012046   -1.3200290745    0.0141144757
H        2.4097851433   -3.9405678231    4.1842869764
H        1.8173744396   -0.1643559589    2.2057816258
H       -0.6787104316   -3.8779017067    5.9947871128
H       -0.8651607600   -6.1060366309    4.9250715877
H       -1.0718464996   -2.0322327899    2.1290749838
H        3.0997569894   -1.0568199984    5.0898235832
H        1.1829347434   -0.6684731356    6.4412059356
29   

C        2.7883031847   -4.2957557499    2.0007114410
C        3.1455882352   -4.1035584416    3.3386401721
C        2.0482291529   -3.3161482053    1.3323334296
C        2.7582741725   -2.9364868623    4.0068926939
C        1.6646330602   -2.1491156804    2.0025144648
C       -0.3982658042   -4.1793695688    3.9962224493
C       -0.7766357834   -4.8744860267    2.8471972835
C       -1.7264167332   -2.2989480208    3.2794380245
C        2.0025143710   -1.9545791265    3.3505991127
C       -0.8571981993   -2.8759195342    4.2152497870
C       -1.6182489496   -4.2878159217    1.8958761511
C       -2.1038854134   -2.9853366434    2.1172433421
C        1.6164645780   -0.7049149725    4.0536402430
C        0.6689720958   -0.5680780713    4.9868592657
O       -1.4469010251   -1.3783681294    6.4010580906
O        0.5584983491   -2.7740346050    6.5355539257
S       -0.2950532839   -1.9359500698    5.6754084975
Cl      -2.0407995604   -5.1815087615    0.4518040825
Cl      -3.1576847400   -2.2037158538    0.9588660134
H        3.0871779548   -5.1998051152    1.4818961070
H        3.7239018698   -4.8573228713    3.8612732069
H        1.7697030896   -3.4598547560    0.2943424438
H        3.0369258506   -2.7967743454    5.0469470478
H        1.0902860937   -1.3962574427    1.4741130696
H        0.2717298984   -4.6465085394    4.7137164403
H       -0.4028773819   -5.8779169357    2.6826344666
H       -2.1057623211   -1.2947388574    3.4431840182
H        2.0700013175    0.2075031424    3.6800117710
H        0.4268860891    0.4032832489    5.3900446101
29   

C        2.8474055260   -4.2853830531    2.0180143030
C        3.0672228778   -4.1107180614    3.3872402709
C        2.2083544615   -3.2819086200    1.2844439347
C        2.6400282118   -2.9390194823    4.0219433503
C        1.7875299434   -2.1084722837    1.9203197321
C       -0.4114490237   -4.1920276937    3.9949100495
C       -0.8038592468   -4.8720754072    2.8415557972
C       -1.7303283289   -2.2944913494    3.3077142985
C        1.9831324431   -1.9310626064    3.2986739001
C       -0.8572747579   -2.8869505523    4.2299323350
C       -1.6495688536   -4.2696461959    1.9036921937
C       -2.1239990588   -2.9662900931    2.1427830890
C        1.5350846803   -0.6883072074    3.9660982485
C        0.6707270690   -0.5830064508    4.9832800024
O       -1.4104909577   -1.4096486152    6.4389636736
O        0.5998796192   -2.8000522922    6.5279987578
S       -0.2710334197   -1.9591506996    5.6882336760
Cl      -2.0924185893   -5.1455671427    0.4548379582
Cl      -3.1836095769   -2.1653089083    1.0030744809
H        3.1754700865   -5.1940395702    1.5255497328
H        3.5698047012   -4.8815185609    3.9608783093
H        2.0370543550   -3.4124005987    0.2217837481
H        2.8191560524   -2.8147624557    5.0855706821
H        1.2900835359   -1.3393889433    1.3398842211
H        0.2596285839   -4.6721170551    4.7027067888
H       -0.4392474144   -5.8765324532    2.6632770056
H       -2.0997187130   -1.2887606956    3.4842840893
H        1.8584956199    0.2400428208    3.5063552060
H        0.4396679000    0.3814109223    5.4090890877
29   

C        2.9381556017   -4.2200077092    1.9827390325
C        2.9751817079   -4.1077968277    3.3746933597
C        2.4433460521   -3.1624319617    1.2157296661
C        2.5064765156   -2.9457302140    3.9975422686
C        1.9814631151   -1.9985673206    1.8405215327
C       -0.4718361081   -4.1820179569    4.0738776233
C       -0.8817284664   -4.8997051966    2.9497125408
C       -1.7545490141   -2.2875813789    3.3140769031
C        1.9906428089   -1.8803797955    3.2396474813
C       -0.8906124328   -2.8597865216    4.2571467914
C       -1.7207678081   -4.3193155928    1.9919714933
C       -2.1677401589   -2.9980322696    2.1795915983
C        1.4740279099   -0.6565091255    3.8779540664
C        0.6641752122   -0.5463310133    4.9421104181
O       -1.4353545219   -1.3004043724    6.4079723089
O        0.5506762758   -2.7130206290    6.5624305588
S       -0.2983530429   -1.8894858057    5.6842543222
Cl      -2.1929043365   -5.2460493625    0.5845517097
Cl      -3.2206118384   -2.2239609505    1.0153127798
H        3.2978629447   -5.1213900647    1.4990633044
H        3.3709840816   -4.9189558031    3.9755962802
H        2.4153335689   -3.2438813087    0.1348961201
H        2.5619335634   -2.8719105796    5.0783563189
H        1.5947661768   -1.1900223945    1.2301284405
H        0.1876941727   -4.6487531833    4.8011823541
H       -0.5398289565   -5.9183875389    2.8113304404
H       -2.1050992532   -1.2691953526    3.4523360088
H        1.7213453576    0.2721382769    3.3736795892
H        0.4562763586    0.4248092602    5.3647916767
29   

C        3.0358063870   -4.0341725020    1.7318753341
C        2.7687047011   -4.1483471974    3.0970776833
C        2.8214726038   -2.8153139501    1.0865687434
C        2.2771234725   -3.0503917830    3.8117232414
C        2.3319146431   -1.7182542023    1.8038850299
C       -0.6795804206   -4.3060534457    4.3343948922
C       -1.1066371119   -5.1047702641    3.2727225300
C       -1.5975681212   -2.3706150408    3.2274303150
C        2.0358168978   -1.8186730847    3.1748676121
C       -0.9101461576   -2.9258694844    4.3150793307
C       -1.7733942000   -4.5475777314    2.1756358113
C       -2.0245007214   -3.1630134755    2.1541795116
C        1.4875024921   -0.6491378751    3.8708062028
C        0.6529315345   -0.5596063127    4.9213517992
O       -1.4770988437   -1.2550020733    6.3676409827
O        0.4920008287   -2.6577649765    6.6277613174
S       -0.3296151822   -1.8751239672    5.6885317320
Cl      -2.2816664071   -5.5825638907    0.8590995412
Cl      -2.8567065612   -2.4137888590    0.8090157426
H        3.4147386383   -4.8853924795    1.1772135121
H        2.9498535912   -5.0870847764    3.6082301332
H        3.0321011401   -2.7195955661    0.0272782440
H        2.1182103535   -3.1656702520    4.8757547250
H        2.1657947110   -0.7841830884    1.2787339361
H       -0.1628275976   -4.7589562517    5.1770993939
H       -0.9192172682   -6.1717243309    3.2951889953
H       -1.8019101354   -1.3047104654    3.2040373742
H        1.7648599290    0.3052555038    3.4347003289
H        0.4489585237    0.4115618388    5.3464204276
29   

C        3.3431327888   -3.9362528252    1.7049331312
C        2.8302861027   -4.1448918899    2.9852826924
C        3.2553514697   -2.6701254547    1.1267870046
C        2.2226000431   -3.0939809021    3.6813657899
C        2.6481495771   -1.6207099984    1.8248541621
C       -0.7889884921   -4.3438478083    4.3990076794
C       -1.3004525502   -5.1636909005    3.3917691382
C       -1.7282160624   -2.4208653914    3.2878796186
C        2.1088345871   -1.8098534557    3.1117901053
C       -0.9889236166   -2.9594785119    4.3498824773
C       -2.0230078411   -4.6240622241    2.3213243260
C       -2.2412320468   -3.2348257751    2.2699768072
C        1.4424836690   -0.6768155944    3.7569882841
C        0.6016603581   -0.5815683806    4.8046188615
O       -1.4303438790   -1.2475405181    6.3943534126
O        0.5509001579   -2.6439324471    6.5701903360
S       -0.3236132996   -1.8816675066    5.6627895702
Cl      -2.6428122670   -5.6864431990    1.0762275581
Cl      -3.1422956168   -2.5067603109    0.9577926309
H        3.8127147804   -4.7512934665    1.1654449934
H        2.9102456175   -5.1223350647    3.4473660275
H        3.6554025205   -2.5001667182    0.1334517557
H        1.8803459577   -3.2988762802    4.6836052589
H        2.5860853674   -0.6501947163    1.3451563589
H       -0.2363444301   -4.7846818387    5.2253023910
H       -1.1394955753   -6.2342898355    3.4377645747
H       -1.9113680606   -1.3517090812    3.2432530538
H        1.6711919424    0.2821573811    3.3031762010
H        0.3527388918    0.4012083521    5.1759377895
29   

C        2.8480716699   -2.1961289064    0.3981605460
C        1.4892035643   -2.1444646513    0.7054601934
C        3.7858451411   -1.8886360952    1.3823645648
C        1.0691152271   -1.7926639028    1.9932226473
C        3.3631074223   -1.5369204416    2.6687514105
C       -0.7088841359   -4.1786411405    5.3647505197
C       -0.6499517540   -5.5528832938    5.1236574390
C       -1.4878993480   -3.8356423958    3.1090311837
C        1.9959776804   -1.4836688375    3.0097179211
C       -1.1134193143   -3.3027486205    4.3517657750
C       -0.9991538399   -6.0817158053    3.8753943951
C       -1.4268041200   -5.2115762355    2.8559780045
C        1.6517682300   -1.1550317751    4.3938911743
C        0.5039679391   -1.0449878674    5.0926639046
O       -1.6783368240   -0.7795719993    3.4766253170
O       -2.0412980178   -1.2536948126    5.8383526869
S       -1.1947590491   -1.5058977349    4.6623260088
Cl      -0.9046452309   -7.8095972300    3.6128327428
Cl      -1.8861403875   -5.8177830159    1.2794265732
H        3.1721091772   -2.4700790105   -0.5997484366
H        0.7535187297   -2.3732181340   -0.0575292027
H        4.8443980634   -1.9248276970    1.1505783800
H        0.0082193068   -1.7504990013    2.1582099748
H        4.1205463927   -1.3111383881    3.4110473600
H       -0.4430634676   -3.7917986404    6.3448261636
H       -0.3324785000   -6.2241925301    5.9129357790
H       -1.8400562583   -3.1767611229    2.3201628576
H        2.5178851480   -0.9047259756    4.9977998070
H        0.5606724002   -0.6501710330    6.0958864107
29   

C        2.5737042234   -2.6838901179    0.6592738320
C        1.2555810642   -2.2934619052    0.8950608684
C        3.5375835998   -2.4841017175    1.6474502996
C        0.9003021654   -1.7157603927    2.1189710360
C        3.1794533341   -1.9070694178    2.8708054318
C       -0.3692636981   -4.1254122344    5.3946493104
C       -0.1334512478   -5.4672089923    5.0870671491
C       -1.3049999760   -3.8081783553    3.1954783188
C        1.8521548331   -1.5215584822    3.1399369982
C       -0.9433454503   -3.2774988436    4.4426907645
C       -0.4703185828   -5.9901983491    3.8325018995
C       -1.0668833098   -5.1496540906    2.8753588711
C        1.5406387527   -0.9859316772    4.4666903558
C        0.3870297600   -0.8071182444    5.1389706228
O       -1.9173080892   -0.8440460252    3.7014056635
O       -2.0349697336   -1.4123830332    6.0648053742
S       -1.2495257937   -1.5206135028    4.8259749226
Cl      -0.1492972219   -7.6750373324    3.4845287854
Cl      -1.5155156774   -5.7490858126    1.2931192590
H        2.8478569630   -3.1335371284   -0.2886596156
H        0.5048356125   -2.4302148536    0.1247041484
H        4.5648302806   -2.7811209491    1.4682457148
H       -0.1209768441   -1.3886488772    2.2346791350
H        3.9483405632   -1.7759969126    3.6240415658
H       -0.1072568416   -3.7417763398    6.3769244302
H        0.3155699370   -6.1176022492    5.8282729468
H       -1.7801062881   -3.1720280771    2.4537970026
H        2.4138765506   -0.6576680485    5.0211662885
H        0.4082754623   -0.2335000658    6.0532994750
29   

C        2.3665367899   -2.8756688586    0.7558142270
C        1.1397760899   -2.2297743048    0.9151884368
C        3.3044395284   -2.8398221514    1.7888691154
C        0.8467038009   -1.5625741660    2.1097194451
C        3.0092240334   -2.1707641618    2.9819708826
C       -0.2860193086   -4.0824336120    5.3888580725
C        0.0353273522   -5.4020034250    5.0621140950
C       -1.1457726310   -3.7638830641    3.1594255496
C        1.7694638624   -1.5350269365    3.1722012215
C       -0.8641241041   -3.2440850477    4.4312328179
C       -0.2184440420   -5.9113727841    3.7823851513
C       -0.8206320806   -5.0816407658    2.8196342135
C        1.4908088535   -0.8916382573    4.4613580667
C        0.3362431087   -0.7085524134    5.1266550653
O       -1.9683295741   -0.8636077382    3.7076789420
O       -2.0442456359   -1.4450042360    6.0721066578
S       -1.2625267841   -1.5088141550    4.8276568373
Cl       0.2136095700   -7.5656937554    3.4093497642
Cl      -1.1648266000   -5.6632991195    1.2048907306
H        2.5918447256   -3.3962930200   -0.1683707763
H        0.4140386879   -2.2391176012    0.1095809289
H        4.2613129909   -3.3349497532    1.6673666343
H       -0.0974671470   -1.0391978745    2.1829807195
H        3.7498254419   -2.1654953863    3.7739121726
H       -0.0847066360   -3.7074478496    6.3886252384
H        0.4887906977   -6.0449334201    5.8070041574
H       -1.6189365736   -3.1340783990    2.4112411371
H        2.3722650309   -0.5375213764    4.9862006058
H        0.3328208796   -0.0893195136    6.0108380592
29   

C        2.1200496673   -2.9628666728    0.8077642520
C        1.0734938338   -2.0426705374    0.9002504191
C        2.9596217376   -3.1692272576    1.9048964088
C        0.8578452998   -1.3431125841    2.0927729486
C        2.7462723001   -2.4634529497    3.0944103958
C       -0.2636134446   -4.0372387016    5.3840451555
C        0.1404164065   -5.3345067308    5.0587388758
C       -0.9881456504   -3.7171839074    3.1073751346
C        1.6814244415   -1.5556637811    3.2119421285
C       -0.8137222962   -3.2079307999    4.4022725341
C       -0.0031990439   -5.8305444952    3.7567489371
C       -0.5811367576   -5.0124943040    2.7696987961
C        1.4503236379   -0.8541780291    4.4870516315
C        0.2923686732   -0.6566461929    5.1360410143
O       -1.9499660030   -0.8557553607    3.6337040217
O       -2.1081051911   -1.4401641382    5.9996121239
S       -1.2801017341   -1.4855042413    4.7844352603
Cl       0.5378261263   -7.4527914599    3.3850987350
Cl      -0.7883738096   -5.5785028875    1.1261905012
H        2.2817933130   -3.5120047430   -0.1132253416
H        0.4260216009   -1.8693761431    0.0478566339
H        3.7748172437   -3.8805855935    1.8351795736
H        0.0491124347   -0.6215330179    2.1373784697
H        3.4027159709   -2.6421673823    3.9385895883
H       -0.1419013100   -3.6698639511    6.3993679898
H        0.5759529165   -5.9691194348    5.8212343386
H       -1.4323757887   -3.0922564659    2.3377257019
H        2.3446290286   -0.5216283363    5.0041356203
H        0.2665842992   -0.0297612805    6.0142552783
29   

C        2.0209845345   -2.9779178489    0.8329864880
C        1.1113940610   -1.9175483242    0.8655146413
C        2.7467451833   -3.3050868606    1.9815409438
C        0.9200584754   -1.1942870457    2.0480045003
C        2.5583408310   -2.5763704752    3.1613950260
C       -0.2694111465   -4.0090804414    5.3802666069
C        0.1551616032   -5.3037193334    5.0701553555
C       -0.9163638592   -3.6953501070    3.0791187390
C        1.6295380704   -1.5256280174    3.2132946678
C       -0.7917868260   -3.1844569056    4.3792858727
C        0.0573874252   -5.8026737004    3.7650363160
C       -0.4932202152   -4.9900307291    2.7581176819
C        1.4232965841   -0.7666093958    4.4665115469
C        0.2768085410   -0.6301812098    5.1448541026
O       -1.9034348075   -0.8369343656    3.5614489427
O       -2.1521470362   -1.4168480913    5.9238809180
S       -1.2795987003   -1.4626292592    4.7401603600
Cl       0.6222701167   -7.4213729567    3.4137059452
Cl      -0.6458688730   -5.5622117563    1.1106839211
H        2.1630015541   -3.5448272667   -0.0804662619
H        0.5500133106   -1.6554955023   -0.0244269402
H        3.4532291798   -4.1271343593    1.9587022375
H        0.2105851124   -0.3725337379    2.0587688015
H        3.1244308670   -2.8437929386    4.0464927528
H       -0.1835831046   -3.6396601949    6.3984941700
H        0.5705846191   -5.9342379358    5.8472039304
H       -1.3331654910   -3.0717743164    2.2931551323
H        2.3186966726   -0.3770076728    4.9399815082
H        0.2399718248   -0.0296204530    6.0407816100
29   

C        1.9874175263   -3.0003514719    0.8745150922
C        1.1729493391   -1.8650581967    0.8371464100
C        2.6058761387   -3.3719569676    2.0715385972
C        0.9729124730   -1.1076883991    1.9966991920
C        2.4057449018   -2.6112978788    3.2290355881
C       -0.2600926064   -4.0229841553    5.3990050668
C        0.1633919089   -5.3144602560    5.0735826933
C       -0.9072015863   -3.6820008012    3.1013466929
C        1.5741603006   -1.4811642216    3.2071219398
C       -0.7828980636   -3.1866551997    4.4077813520
C        0.0622168533   -5.7991740309    3.7633051459
C       -0.4887849186   -4.9748270762    2.7661609440
C        1.3733435136   -0.6667190348    4.4319323276
C        0.2687478577   -0.6225120063    5.1838498702
O       -1.9159931398   -0.8425008644    3.6172684461
O       -2.1440977446   -1.4425488041    5.9781369940
S       -1.2798098749   -1.4713236687    4.7877111125
Cl       0.6240695516   -7.4147797400    3.3932056537
Cl      -0.6474372898   -5.5303744065    1.1135209485
H        2.1375073850   -3.5919977140   -0.0218066680
H        0.6924349279   -1.5713470087   -0.0894624722
H        3.2373269759   -4.2526646755    2.1035659549
H        0.3339067714   -0.2306893727    1.9593024198
H        2.8886774524   -2.9101204522    4.1525199699
H       -0.1740888711   -3.6657590117    6.4215720385
H        0.5792667580   -5.9543171220    5.8427790904
H       -1.3212008473   -3.0477871610    2.3223185676
H        2.2515847014   -0.1575649200    4.8155739078
H        0.2458649888   -0.0465845676    6.0961997011
29   

C        2.0008782761   -3.1045979214    0.9056339748
C        1.2681994822   -1.9229038649    0.7620575663
C        2.5022279885   -3.4623485914    2.1601607134
C        1.0360326527   -1.1028048521    1.8720927091
C        2.2661488087   -2.6412728101    3.2684747892
C       -0.2207354514   -4.0657481877    5.3690329485
C        0.1883896904   -5.3473683963    4.9895401311
C       -0.9545801908   -3.6573845988    3.1082354855
C        1.5203713477   -1.4595771127    3.1377556883
C       -0.7797992702   -3.2005961509    4.4230962453
C        0.0354104898   -5.7937291219    3.6705213694
C       -0.5527784289   -4.9405689270    2.7199210572
C        1.2976309745   -0.5725293548    4.3104135501
C        0.2614730286   -0.5972849427    5.1532333188
O       -2.0314673412   -0.8788825716    3.7707717129
O       -2.0448361646   -1.5168683236    6.1299563144
S       -1.2802176896   -1.5036126140    4.8727563127
Cl       0.5799875826   -7.3979504385    3.2316139898
Cl      -0.7778271813   -5.4482049395    1.0595493682
H        2.1776564882   -3.7431527047    0.0471617948
H        0.8778779061   -1.6413492314   -0.2095848481
H        3.0696778996   -4.3789639441    2.2750754303
H        0.4636492768   -0.1884363622    1.7525359271
H        2.6586199178   -2.9279752446    4.2375457242
H       -0.0985190404   -3.7398042861    6.3984294112
H        0.6316856423   -6.0103085285    5.7230894297
H       -1.3981190395   -3.0006731042    2.3648407521
H        2.1082884993    0.1095244125    4.5459245264
H        0.2687853443    0.0038678966    6.0494556023
29   

C        3.0349359288   -3.5152460574    2.1410922444
C        1.9431755400   -3.0684833510    1.3899589870
C        3.3210252668   -2.9209127021    3.3742500512
C        1.1432099450   -2.0243885056    1.8682491589
C        2.5189017444   -1.8790041827    3.8530743782
C        0.1962006162   -4.2880834558    4.3855042282
C        0.1131048304   -5.3007931277    3.4293550251
C       -1.8098593219   -3.2957254127    3.4888043503
C        1.4311536507   -1.4136391991    3.0994111207
C       -0.7574986297   -3.2649358165    4.4139098345
C       -0.9187114765   -5.3152772939    2.4845603293
C       -1.8957818999   -4.3026300954    2.5177148339
C        0.5522199119   -0.3315478905    3.6110391879
C       -0.3455938780   -0.4263983433    4.5971876953
O       -1.8624943675   -1.7344608614    6.3626948773
O        0.5498774318   -2.1141404472    6.5033450092
S       -0.6061241935   -1.8994495927    5.6153833835
Cl      -0.9669137332   -6.5848988861    1.2811159278
Cl      -3.2067048668   -4.2720295334    1.3584983410
H        3.6560490539   -4.3227404052    1.7696806584
H        1.7125278020   -3.5338515598    0.4381967616
H        4.1627797689   -3.2672204413    3.9635583476
H        0.2923887485   -1.6936196703    1.2829769479
H        2.7382974630   -1.4320135531    4.8179326240
H        1.0161154260   -4.2854367493    5.0993808245
H        0.8654170708   -6.0800753537    3.4099722967
H       -2.5686226371   -2.5192153886    3.5088610016
H        0.5569706666    0.5917424660    3.0406828015
H       -0.9805477861    0.4101058012    4.8458347825
29   

C        3.0799947566   -3.5025377078    2.1267462855
C        2.0582945245   -3.0169432777    1.3050049886
C        3.2537510006   -2.9708295892    3.4080229791
C        1.2137728298   -1.9989771614    1.7625588275
C        2.4052086415   -1.9575779741    3.8675263076
C        0.1762326130   -4.3086853778    4.4129487029
C        0.0872418093   -5.3169429065    3.4526812841
C       -1.8240548651   -3.3015058735    3.5205481384
C        1.3783338008   -1.4600618123    3.0493728685
C       -0.7699365254   -3.2786386320    4.4436097861
C       -0.9458499822   -5.3226608915    2.5091312174
C       -1.9178987710   -4.3054947694    2.5475919971
C        0.4625115355   -0.3997601923    3.5265953024
C       -0.3440239897   -0.4472087316    4.5943177991
O       -1.8525504997   -1.7263926000    6.3892530293
O        0.5579059694   -2.1186799512    6.5177926949
S       -0.6024483891   -1.9061353978    5.6350505658
Cl      -1.0024217579   -6.5875337993    1.3010863040
Cl      -3.2314481318   -4.2645094526    1.3916938121
H        3.7366565826   -4.2885582773    1.7707138391
H        1.9184785514   -3.4303075693    0.3124490369
H        4.0460252274   -3.3414627477    4.0489021193
H        0.4208686395   -1.6361608969    1.1179697355
H        2.5486009603   -1.5534890239    4.8650154235
H        0.9965805636   -4.3135236520    5.1262519944
H        0.8355890476   -6.0999254254    3.4290034319
H       -2.5771261255   -2.5195447832    3.5426517611
H        0.3552190670    0.4620827501    2.8758102614
H       -0.9511500018    0.4044032450    4.8607162382
29   

C        3.1689464583   -3.4158310146    2.0462332301
C        2.2470920147   -2.8246831888    1.1776742537
C        3.2050531759   -3.0293510850    3.3887706147
C        1.3589735640   -1.8526162543    1.6520216687
C        2.3131692886   -2.0620432310    3.8646471088
C        0.1131417698   -4.3359749520    4.4587776008
C        0.0098295327   -5.3603559156    3.5171269952
C       -1.8622977811   -3.3077832754    3.5357797941
C        1.3698433411   -1.4732091673    3.0057975980
C       -0.8131280936   -3.2874402503    4.4642720260
C       -1.0200160845   -5.3657355225    2.5698382736
C       -1.9721240695   -4.3293302232    2.5833502065
C        0.4228466449   -0.4465999240    3.4780043970
C       -0.3341251942   -0.4599271462    4.5854622072
O       -1.8963331013   -1.6879744652    6.3685874398
O        0.4997050553   -2.1272791675    6.5482460072
S       -0.6372526247   -1.9021024366    5.6388845280
Cl      -1.0996634384   -6.6563201805    1.3905749830
Cl      -3.2826214887   -4.2881772026    1.4239710674
H        3.8593389773   -4.1664077372    1.6776868899
H        2.2203539505   -3.1191579132    0.1345264685
H        3.9283133503   -3.4733892054    4.0636660288
H        0.6486215311   -1.4046810971    0.9660173475
H        2.3708087092   -1.7594041671    4.9048914956
H        0.9269519646   -4.3457247579    5.1794723675
H        0.7418357861   -6.1590505971    3.5129975587
H       -2.6012759717   -2.5121738053    3.5400048632
H        0.2611990366    0.3873903655    2.8025818775
H       -0.9102381934    0.4109997978    4.8584911751
29   

C        3.2150493236   -3.2063821356    1.8146982336
C        2.4537223245   -2.3918972861    0.9729652991
C        3.0626787422   -3.1068686169    3.1996480534
C        1.5313385569   -1.4898784386    1.5150425883
C        2.1396934130   -2.2064748347    3.7427216053
C       -0.0128553731   -4.4295136102    4.7469966750
C       -0.0996697668   -5.5370011412    3.9023131855
C       -1.7679410218   -3.3538794276    3.4915066387
C        1.3408195966   -1.4058988107    2.9079785998
C       -0.8395071086   -3.3194419887    4.5406055611
C       -1.0113849022   -5.5630456876    2.8408219891
C       -1.8582891996   -4.4581897719    2.6345057373
C        0.3671113208   -0.4334560458    3.4188229611
C       -0.4028945394   -0.4581983779    4.5205270722
O       -1.9937778122   -1.6287038774    6.3119730122
O        0.3923036505   -2.0198714815    6.5865670073
S       -0.7132749490   -1.8592906651    5.6265416452
Cl      -1.0804054583   -6.9666547717    1.7977438550
Cl      -3.0189954090   -4.4383424294    1.3245995495
H        3.9300856853   -3.9052251995    1.3949596970
H        2.5783692636   -2.4589339212   -0.1020018652
H        3.6684372709   -3.7199632169    3.8573714029
H        0.9505182583   -0.8668315544    0.8439728658
H        2.0778736947   -2.1218381422    4.8199869669
H        0.7024154751   -4.4298705398    5.5658657053
H        0.5480174607   -6.3896791696    4.0679398134
H       -2.4306240697   -2.5095437768    3.3285086148
H        0.2042641115    0.4250071451    2.7749845064
H       -0.9893701707    0.4122870225    4.7728653943
29   

C        3.4620709722   -3.0065231996    1.7369230672
C        2.7925325107   -2.0836189453    0.9314268843
C        3.1263361264   -3.1172965061    3.0875083271
C        1.7791146221   -1.2848498101    1.4726140760
C        2.1128952026   -2.3193096763    3.6298265756
C       -0.0948379510   -4.4990426007    4.8131093448
C       -0.2639740750   -5.6467840379    4.0369145292
C       -1.8964634747   -3.4403530146    3.6100247782
C        1.4007154955   -1.4117926201    2.8253416686
C       -0.9041050519   -3.3777303604    4.5976836691
C       -1.2427238227   -5.7030262234    3.0378490941
C       -2.0710552731   -4.5858848867    2.8232693491
C        0.3485800079   -0.5186111927    3.3172241204
C       -0.4185660792   -0.5318434065    4.4236353826
O       -1.9391844061   -1.5880224567    6.3384553053
O        0.4474112311   -2.0146356590    6.5273896897
S       -0.6950291380   -1.8740289779    5.6085684446
Cl      -1.4191405643   -7.1597827225    2.0840020964
Cl      -3.3156214255   -4.6031959269    1.5925689698
H        4.2484250891   -3.6252328095    1.3189252820
H        3.0600571442   -1.9848847360   -0.1146523985
H        3.6620940347   -3.8133859797    3.7230010062
H        1.2775889196   -0.5739743916    0.8253130377
H        1.9268665225   -2.4022728861    4.6894619807
H        0.6660125251   -4.4803575846    5.5896444703
H        0.3683811560   -6.5095538157    4.2098805279
H       -2.5484912797   -2.5881555988    3.4441826265
H        0.1412864919    0.3219394855    2.6626947751
H       -1.0366736998    0.3280666051    4.6336441304
29   

C        2.4745838611   -3.0687439622    0.1960149915
C        3.2869201690   -2.1549219193    0.8681618943
C        1.1476595228   -3.2354087794    0.5942751287
C        2.7752897848   -1.4186723338    1.9424313075
C        0.6346479799   -2.4991535056    1.6680051331
C       -0.3630706207   -3.5505177710    5.8165727176
C        0.0838955737   -4.8344075230    6.1365614930
C       -1.3061737315   -4.4104932640    3.7710087965
C        1.4434006004   -1.5927882359    2.3768946470
C       -1.0500729241   -3.3227617771    4.6195264726
C       -0.1506962342   -5.9149708597    5.2778125768
C       -0.8579160094   -5.7002550279    4.0808560058
C        1.0039482807   -0.7582949509    3.4965637351
C       -0.1472019334   -0.6230432418    4.1848405518
O       -2.3127491960   -1.6416314957    2.8825437903
O       -2.5232240885   -1.1545112213    5.2592971085
S       -1.6402238496   -1.6491599073    4.1922132883
Cl       0.4321698086   -7.5067173768    5.7137110662
Cl      -1.1892014644   -7.0154254679    2.9742226489
H        2.8683868019   -3.6395668690   -0.6376348184
H        4.3153580567   -2.0141953607    0.5550495619
H        0.5068892658   -3.9304662027    0.0631634141
H        3.4317993546   -0.7137034871    2.4401332377
H       -0.4045729854   -2.6437590305    1.9028609103
H       -0.1778334444   -2.7289821860    6.5031786851
H        0.6186140479   -5.0021663690    7.0640684408
H       -1.8675369984   -4.2607794337    2.8527085235
H        1.7612129276   -0.0578195624    3.8333891749
H       -0.2240037475    0.1910019064    4.8898403376
