19   

C        0.2864808700   -1.1772538858    0.6306168389
C        2.6562740145   -0.8078659168    0.4968733803
C        0.4337981502   -1.4176322207    2.0060663451
C        2.7337699237   -1.0584045302    1.8789037496
C        1.4104712069   -0.8736013174   -0.1498429341
C        1.1656998246   -0.5942062121   -1.6246463529
C        1.7530027314   -1.5937701875    4.0526577471
N        1.6391338690   -1.3614686775    2.6047002442
N        2.2551292836   -0.6108878080   -2.4426087570
O        0.0635738078   -0.3758923808   -2.0890633634
H       -0.6991717680   -1.2198420799    0.1684591731
H        3.5573719927   -0.5464111791   -0.0498075234
H       -0.4534317697   -1.6503498295    2.5895151827
H        3.7031378791   -0.9986700617    2.3671968346
H        1.8705900360   -2.6625808408    4.2599611239
H        2.6149081789   -1.0560644083    4.4604991707
H        0.8606474102   -1.2257955265    4.5693541904
H        2.0596278719   -0.4491959155   -3.4266777934
H        3.1639008263   -0.9308463745   -2.1383674655
19   

C        0.3036069957   -1.1998505692    0.6072979876
C        2.6563242825   -0.7241139297    0.5104628267
C        0.4471437876   -1.4691836783    1.9779825676
C        2.7310891918   -1.0063205485    1.8863184735
C        1.4219075580   -0.8248216757   -0.1501957205
C        1.1976617185   -0.5066853582   -1.6174457621
C        1.7508066970   -1.6326887629    4.0358363043
N        1.6429202269   -1.3749181832    2.5917365437
N        2.2370359440   -0.7602820158   -2.4587974403
O        0.1364291706   -0.1117766497   -2.0587093604
H       -0.6729411808   -1.2670210261    0.1292771237
H        3.5460272075   -0.4053388785   -0.0259815571
H       -0.4350908050   -1.7534842254    2.5459383094
H        3.6917340101   -0.9146592761    2.3867668004
H        1.9020419514   -2.7008873898    4.2233002293
H        2.5905071188   -1.0750789239    4.4628771420
H        0.8420422972   -1.3043330407    4.5506745603
H        2.0495033956   -0.5970357140   -3.4441122461
H        3.0682445088   -1.2525592121   -2.1600327605
19   

C        0.3257686691   -1.2238159584    0.5927635433
C        2.6570351877   -0.6498715225    0.5313246140
C        0.4675443941   -1.5196157023    1.9583684056
C        2.7314626263   -0.9610122031    1.9007541823
C        1.4341119301   -0.7802619666   -0.1424254813
C        1.2309157939   -0.4273175026   -1.6034517451
C        1.7564796125   -1.6708815075    4.0266197591
N        1.6525894339   -1.3893144092    2.5866727783
N        2.1631952416   -0.8982640296   -2.4724962612
O        0.2377252795    0.1368124496   -2.0167402156
H       -0.6417003599   -1.3154447373    0.1011159278
H        3.5353591598   -0.2844012973    0.0049100364
H       -0.4073645454   -1.8523736313    2.5111276624
H        3.6832492897   -0.8415146674    2.4121496749
H        1.9393629758   -2.7371320577    4.1958468382
H        2.5749172052   -1.0956670715    4.4712741972
H        0.8338519862   -1.3799428532    4.5393547777
H        1.9745135984   -0.7263417397   -3.4560267035
H        2.9106523545   -1.5147927833   -2.1811225533
19   

C        0.3586359055   -1.2687973475    0.5748070860
C        2.6627173509   -0.5956883800    0.5503217445
C        0.4986205431   -1.5835785672    1.9366256523
C        2.7369255792   -0.9283441191    1.9144185267
C        1.4538003414   -0.7611299479   -0.1387378690
C        1.2674855389   -0.3691497741   -1.5917339724
C        1.7688280294   -1.7086748685    4.0184267131
N        1.6699869993   -1.4131292408    2.5809213022
N        2.0351645654   -1.0228903143   -2.4987149654
O        0.3893864060    0.3823991911   -1.9634045239
H       -0.5992468659   -1.3886615474    0.0714428304
H        3.5287555353   -0.1846129754    0.0367281230
H       -0.3670786173   -1.9619125575    2.4743595357
H        3.6776857137   -0.7770639652    2.4376707038
H        1.9890516745   -2.7693963739    4.1772522797
H        2.5607166585   -1.1091759413    4.4788703805
H        0.8308554923   -1.4574670020    4.5243381232
H        1.8451640795   -0.8139303250   -3.4746890590
H        2.6826309567   -1.7536082883   -2.2315562376
19   

C        0.4140868393   -1.3083822636    0.5436590505
C        2.6859559681   -0.5406431012    0.5833092433
C        0.5362419570   -1.6378274285    1.9041730044
C        2.7443134035   -0.8901940074    1.9434727219
C        1.5026591056   -0.7457761842   -0.1378624091
C        1.3479185484   -0.3091795893   -1.5821885613
C        1.7613893893   -1.7348164223    4.0148511788
N        1.6841870374   -1.4283614775    2.5783108496
N        1.9106401949   -1.1033772470   -2.5239326096
O        0.6790859139    0.6486496441   -1.9108595607
H       -0.5280623196   -1.4574807003    0.0197768922
H        3.5435594236   -0.0832097653    0.0949544880
H       -0.3250572518   -2.0579342029    2.4173904854
H        3.6658403457   -0.7056586061    2.4897764624
H        2.0334068298   -2.7840975736    4.1690474036
H        2.5080654626   -1.0992149535    4.5017591848
H        0.7988260540   -1.5389033193    4.4985084462
H        1.7567668320   -0.8297722818   -3.4901678377
H        2.4127569386   -1.9498813218   -2.2864857582
19   

C        0.8825351905   -0.0594729013    0.7027870194
C        2.5012436509   -1.8071477399    0.4445668907
C        0.8111572352   -0.3740664394    2.0711538244
C        2.3870413764   -2.0727581173    1.8193590386
C        1.7380838303   -0.7861865318   -0.1357525593
C        1.9094634904   -0.3965973490   -1.5921232880
C        1.4959924059   -1.6360173620    4.0497537368
N        1.5528149490   -1.3646887747    2.6052298324
N        1.0642500478   -0.9669575755   -2.4828358982
O        2.7662937351    0.3754366645   -1.9692528730
H        0.2986470384    0.7630116784    0.2951267079
H        3.2023170657   -2.3683548079   -0.1696642360
H        0.1503095504    0.2104133905    2.7062081135
H        3.0007018026   -2.8596412350    2.2506660206
H        0.8076016079   -2.4615887529    4.2579217062
H        2.4907017618   -1.8938844512    4.4279616465
H        1.1585899062   -0.7476438377    4.5932223938
H        1.1954344283   -0.7062584175   -3.4559398515
H        0.3487854745   -1.6262121321   -2.2022281248
19   

C        0.8746126593   -0.1262219122    0.6757125567
C        2.5759321902   -1.7990353007    0.4797697104
C        0.7899626728   -0.4227781426    2.0479176034
C        2.4469955175   -2.0494321029    1.8555052657
C        1.7751244053   -0.8284857026   -0.1353722821
C        1.9775249397   -0.4608081465   -1.5933599693
C        1.4897035867   -1.6234608287    4.0598047770
N        1.5643846763   -1.3703032374    2.6128112018
N        0.9964967806   -0.8231676166   -2.4546216147
O        3.0037443820    0.0360221318   -2.0094248677
H        0.2621975877    0.6634960537    0.2462665836
H        3.3168122620   -2.3322773937   -0.1128932349
H        0.0909760550    0.1402475120    2.6611481703
H        3.0890244658   -2.7996245053    2.3102543747
H        0.8287082464   -2.4714381514    4.2667903053
H        2.4857605619   -1.8392139581    4.4602005462
H        1.1094033401   -0.7409124076    4.5840437202
H        1.1705697583   -0.6302861300   -3.4367985234
H        0.1717261432   -1.3264497880   -2.1521573209
19   

C        0.8464008206   -0.1789808379    0.6543208252
C        2.6181520740   -1.7785020157    0.5015769797
C        0.7601007214   -0.4591871926    2.0303471846
C        2.4864883243   -2.0152300806    1.8789353734
C        1.7824719591   -0.8539114350   -0.1385412639
C        1.9917886041   -0.5166036486   -1.6026124916
C        1.4865935211   -1.6036870683    4.0662148020
N        1.5676237578   -1.3647441002    2.6171637204
N        0.9146193507   -0.6557219641   -2.4166198162
O        3.0829591670   -0.2615701600   -2.0700739212
H        0.2046970537    0.5785125573    0.2103375061
H        3.3863304266   -2.2883359048   -0.0774846634
H        0.0312919655    0.0816306440    2.6286532936
H        3.1552497162   -2.7314460167    2.3496822752
H        0.8781998243   -2.4898532602    4.2746582105
H        2.4881312631   -1.7498985518    4.4840512243
H        1.0417501881   -0.7413716766    4.5729277042
H        1.0865809403   -0.5106910554   -3.4074529259
H        0.0291886727   -1.0146943073   -2.0825185275
19   

C        0.8337299207   -0.2572101957    0.6146948343
C        2.6714572195   -1.7811924231    0.5168617914
C        0.7478756905   -0.5065116114    1.9970713458
C        2.5390830280   -1.9898268387    1.8982461034
C        1.8039498565   -0.9090017770   -0.1557662292
C        2.0105067482   -0.6317080283   -1.6332822940
C        1.5000106073   -1.5732170635    4.0658577262
N        1.5872123239   -1.3620725891    2.6128737730
N        0.8853041779   -0.5576089552   -2.3938100279
O        3.1078139451   -0.5838279084   -2.1519081755
H        0.1616698384    0.4614346477    0.1522611006
H        3.4620501137   -2.2774524326   -0.0441705883
H       -0.0089987282    0.0161394708    2.5763788939
H        3.2324875974   -2.6672689939    2.3902719023
H        0.9102357512   -2.4687672613    4.2875104788
H        2.5010934451   -1.6888892337    4.4941609781
H        1.0320785649   -0.7110338639    4.5515211266
H        1.0379268981   -0.4520604524   -3.3928835588
H       -0.0307380800   -0.7760479369   -2.0240710588
19   

C        0.8162636401   -0.3239022777    0.6050655645
C        2.7236703898   -1.7580641805    0.5582565498
C        0.7277433374   -0.5489421317    1.9917759767
C        2.5871791441   -1.9455325913    1.9418445935
C        1.8253951989   -0.9403409831   -0.1446399812
C        2.0329836365   -0.7216045589   -1.6332575127
C        1.5021186417   -1.5418519388    4.0889338547
N        1.5993081978   -1.3505096531    2.6338699197
N        0.9233674615   -0.4361053863   -2.3689174360
O        3.1117622247   -0.8482520869   -2.1779047868
H        0.1104050826    0.3508677391    0.1285535372
H        3.5389674291   -2.2357558475    0.0163378879
H       -0.0606963057   -0.0536387765    2.5527134006
H        3.3049258444   -2.5822360219    2.4529983831
H        0.9276705990   -2.4455078809    4.3180326939
H        2.5009025368   -1.6327924730    4.5283427390
H        1.0135159717   -0.6816075432    4.5573384895
H        1.0769808532   -0.3492315143   -3.3697147633
H       -0.0111436634   -0.5045664423   -1.9891407489
19   

C        0.7842931523   -0.3873911720    0.5957805507
C        2.7581894017   -1.7249736229    0.5794811688
C        0.7079555425   -0.5849943052    1.9876883778
C        2.6324779062   -1.8880851600    1.9668125273
C        1.8227128695   -0.9666135046   -0.1441015965
C        2.0156619535   -0.8104768409   -1.6451238941
C        1.5246047302   -1.4991066433    4.1045926064
N        1.6174289886   -1.3276115073    2.6467933870
N        0.9601305889   -0.3259944160   -2.3572048916
O        3.0469730350   -1.1076021972   -2.2155984886
H        0.0366330948    0.2340428988    0.1124605680
H        3.5917907400   -2.1840090709    0.0491656532
H       -0.1059965969   -0.1203124814    2.5382802493
H        3.3788361668   -2.4809024378    2.4896425171
H        0.9803680346   -2.4179556856    4.3469308090
H        2.5251110540   -1.5505846478    4.5463847267
H        1.0068962723   -0.6484884860    4.5590346985
H        1.1104157057   -0.2587612149   -3.3600538899
H        0.0395267547   -0.2025429854   -1.9601011404
19   

C        0.7330929598   -0.5094652467    0.5954289073
C        2.8006320503   -1.6905354092    0.6002610634
C        0.6804949040   -0.6719502895    1.9930510225
C        2.6974802981   -1.8231397443    1.9925297206
C        1.8080301234   -1.0241175393   -0.1405108236
C        1.9867015621   -0.9252420445   -1.6510636572
C        1.5732300799   -1.4671338213    4.1272181029
N        1.6480825456   -1.3223405443    2.6655148867
N        1.0220090917   -0.2819136544   -2.3565450078
O        2.9426418229   -1.3964477582   -2.2359248237
H       -0.0755949758    0.0201392195    0.1023208365
H        3.6606374861   -2.1092615385    0.0787429415
H       -0.1670763266   -0.2617964478    2.5361651561
H        3.4883348551   -2.3463128406    2.5242026047
H        1.1022177075   -2.4195893930    4.3923582767
H        2.5760266979   -1.4317254660    4.5653212994
H        0.9924887568   -0.6491440637    4.5650000429
H        1.1765407951   -0.2359158001   -3.3599045698
H        0.2083988121    0.1410939085   -1.9342042110
19   

C        0.6829829777   -0.5837034880    0.5767173092
C        2.8300344692   -1.6209608010    0.5906510008
C        0.6504082169   -0.7200442893    1.9776510446
C        2.7435700234   -1.7305243534    1.9862239366
C        1.7898761614   -1.0371292503   -0.1516997739
C        1.9236473073   -0.9700900334   -1.6656918770
C        1.6043801168   -1.4156123456    4.1199157272
N        1.6655448342   -1.2877438364    2.6560036033
N        1.0517816957   -0.1596717989   -2.3282856543
O        2.7670130312   -1.5886316633   -2.2849475495
H       -0.1708449499   -0.1408935246    0.0731025905
H        3.7078172697   -1.9978072846    0.0668961615
H       -0.2232778785   -0.3644812890    2.5178879739
H        3.5690619701   -2.1912472327    2.5229960429
H        1.1844853130   -2.3875322200    4.4001118919
H        2.6056967990   -1.3228735612    4.5528753280
H        0.9837258457   -0.6228004783    4.5491487798
H        1.1835302962   -0.1154582211   -3.3350133089
H        0.4319888886    0.4834600896   -1.8564218380
19   

C        0.6472606038   -0.6382504817    0.5718442822
C        2.8442195228   -1.5713803759    0.5825503479
C        0.6334852768   -0.7499985055    1.9749636336
C        2.7745580570   -1.6591479993    1.9809556368
C        1.7707157047   -1.0494969952   -0.1556935997
C        1.8566075560   -1.0280604318   -1.6719123050
C        1.6351304079   -1.3699727904    4.1185948228
N        1.6815077577   -1.2561681546    2.6529808338
N        1.1315717341   -0.0691699481   -2.3111899880
O        2.5737128548   -1.7765251048   -2.3059642545
H       -0.2313123493   -0.2561407299    0.0593263320
H        3.7286194353   -1.9233996586    0.0529402638
H       -0.2534346365   -0.4310177195    2.5164888953
H        3.6236693349   -2.0740296439    2.5182664824
H        1.2724078618   -2.3609380958    4.4118701918
H        2.6315996408   -1.2156131792    4.5450024239
H        0.9718970873   -0.6093462848    4.5422992183
H        1.2477572844   -0.0382668777   -3.3202917008
H        0.6728037902    0.6836443312   -1.8162006760
19   

C        0.6014738179   -0.6848093845    0.5733265652
C        2.8411952137   -1.5171576480    0.5641365849
C        0.6093485721   -0.7834576086    1.9771144056
C        2.7911803937   -1.5946133428    1.9644135036
C        1.7363018109   -1.0493131697   -0.1613831732
C        1.7729551764   -1.0606300802   -1.6783900612
C        1.6615758164   -1.3441102115    4.1126318773
N        1.6880850512   -1.2352655158    2.6461363254
N        1.2317293030    0.0176403587   -2.3048139555
O        2.3441457686   -1.9195103769   -2.3198491983
H       -0.2971047806   -0.3515286645    0.0601089956
H        3.7296173352   -1.8412282465    0.0239972803
H       -0.2857679814   -0.5022904338    2.5260655822
H        3.6627347478   -1.9688714631    2.4955722265
H        1.3553684958   -2.3517926892    4.4134673809
H        2.6520543928   -1.1341912752    4.5290619021
H        0.9616953976   -0.6187928802    4.5392734542
H        1.3339650858    0.0340943110   -3.3156769634
H        0.9120870298    0.8323181791   -1.7971893264
19   

C        0.5489804597   -0.7298392462    0.5887153710
C        2.8251117066   -1.4634919586    0.5507809725
C        0.5818104819   -0.8164634828    1.9925572017
C        2.7981069678   -1.5314810157    1.9526208563
C        1.6894155486   -1.0497851109   -0.1579476132
C        1.6767117763   -1.0897704077   -1.6743369146
C        1.6870831435   -1.3202025825    4.1151439431
N        1.6895487154   -1.2156787497    2.6480904274
N        1.3504569205    0.0655163354   -2.3068449263
O        2.0607045165   -2.0493527074   -2.3115037399
H       -0.3686432027   -0.4413965347    0.0813250836
H        3.7160429782   -1.7584493987   -0.0011073691
H       -0.3173249157   -0.5716723640    2.5522639681
H        3.6915194886   -1.8653361678    2.4742965249
H        1.4423458637   -2.3426396501    4.4225615871
H        2.6687390634   -1.0523900972    4.5189758962
H        0.9514762540   -0.6350956482    4.5480860112
H        1.4279889016    0.0530139134   -3.3198539929
H        1.1742968386    0.9251844079   -1.8024601042
19   

C        0.5131956429   -0.7853518027    0.5900599198
C        2.8243002062   -1.4068822148    0.5321537986
C        0.5626372404   -0.8658385201    1.9932914507
C        2.8117812561   -1.4716432531    1.9348854282
C        1.6620386824   -1.0535442097   -0.1651374088
C        1.6181017617   -1.1039379735   -1.6807218320
C        1.7080806805   -1.3131997305    4.1064266283
N        1.6944534122   -1.2091936990    2.6393848273
N        1.5313937130    0.0847768965   -2.3243078096
O        1.7613002942   -2.1321156325   -2.3095590700
H       -0.4204444522   -0.5433227959    0.0872177751
H        3.7236744253   -1.6611641725   -0.0254898861
H       -0.3428162279   -0.6638761859    2.5598768373
H        3.7241082312   -1.7605443814    2.4505997605
H        1.5006302530   -2.3432938209    4.4157988460
H        2.6834169564   -1.0124960602    4.5022201016
H        0.9532948202   -0.6532291138    4.5454095193
H        1.5681115775    0.0472252947   -3.3389114407
H        1.5093995579    0.9668308860   -1.8277991521
19   

C        0.4518254305   -0.8326955226    0.6055454010
C        2.7928953391   -1.3347354659    0.5125246956
C        0.5247581691   -0.9134197978    2.0071801211
C        2.8017818731   -1.4028574348    1.9157291886
C        1.6020626343   -1.0457351341   -0.1658178352
C        1.5232931668   -1.0813211708   -1.6804713514
C        1.7195711667   -1.3082820431    4.1025563814
N        1.6815226671   -1.2007988515    2.6361784557
N        1.6867989800    0.0963651955   -2.3278136760
O        1.3407840311   -2.1048816113   -2.3061213626
H       -0.4983968341   -0.6358684920    0.1136993121
H        3.6983884638   -1.5376306952   -0.0554965537
H       -0.3821456982   -0.7582405868    2.5860605808
H        3.7342882804   -1.6442761342    2.4196247801
H        1.5546555334   -2.3462293070    4.4113242789
H        2.6884247837   -0.9729037105    4.4861206716
H        0.9469679608   -0.6778894315    4.5539040564
H        1.6432974413    0.0604189891   -3.3421723846
H        1.8565311921    0.9642944951   -1.8347198332
19   

C        0.3931385634   -0.8818916160    0.6274668863
C        2.7578315095   -1.2604581535    0.4993851919
C        0.4893426780   -0.9623448976    2.0271301063
C        2.7881714653   -1.3317560151    1.9027310808
C        1.5418869119   -1.0388317979   -0.1599579249
C        1.4265773757   -1.0511547745   -1.6722924499
C        1.7307682614   -1.3004719471    4.1043622726
N        1.6681001424   -1.1916751218    2.6389140039
N        1.8338877066    0.0633290987   -2.3254812437
O        0.9132405142   -1.9647195465   -2.2844107248
H       -0.5711568374   -0.7309598070    0.1461485690
H        3.6668639497   -1.4087470000   -0.0793042885
H       -0.4166425908   -0.8544338067    2.6180734344
H        3.7384716263   -1.5231915295    2.3947050539
H        1.6000192378   -2.3432109197    4.4133482842
H        2.6951492190   -0.9385712905    4.4747672803
H        0.9472809412   -0.6927628926    4.5679756879
H        1.7045046554    0.0639193066   -3.3331553230
H        2.1989847154    0.8719386275   -1.8376934204
19   

C        0.3518106705   -0.9386928560    0.6377288666
C        2.7327553246   -1.2001686130    0.4873491965
C        0.4628039358   -1.0275130751    2.0353586700
C        2.7764794255   -1.2831872533    1.8901315925
C        1.5007851523   -1.0331784360   -0.1593680248
C        1.3553691648   -1.0125911170   -1.6685540578
C        1.7354852143   -1.3185473406    4.1001326464
N        1.6563074499   -1.2044936003    2.6358755644
N        1.9901232788   -0.0074403715   -2.3222986621
O        0.6070826928   -1.7565809790   -2.2690010399
H       -0.6214779068   -0.8269261179    0.1628991484
H        3.6446239752   -1.2959878421   -0.0975540967
H       -0.4429160221   -0.9674690085    2.6334809577
H        3.7384062543   -1.4310616404    2.3744702964
H        1.6406470843   -2.3663253377    4.4050372938
H        2.6910854826   -0.9280136866    4.4641356376
H        0.9374160310   -0.7378099249    4.5734406041
H        1.8200761439    0.0492780441   -3.3223819266
H        2.5100397767    0.7105594107   -1.8337143283
19   

C        0.3184063248   -0.9777770014    0.6439296675
C        2.7087689272   -1.1328377190    0.4788257030
C        0.4397165835   -1.0876617709    2.0389028505
C        2.7617198355   -1.2399553336    1.8799559363
C        1.4666209824   -1.0034574849   -0.1592368842
C        1.2932275498   -0.9452966304   -1.6647278276
C        1.7332964019   -1.3522859837    4.0936838608
N        1.6425912938   -1.2222671323    2.6314152461
N        2.1196299037   -0.0970819657   -2.3325405549
O        0.3971132015   -1.5179464923   -2.2516549555
H       -0.6613801229   -0.8960627169    0.1755155082
H        3.6228609267   -1.1801995452   -0.1079804321
H       -0.4651706263   -1.0765603485    2.6411964394
H        3.7309491099   -1.3545426232    2.3587068376
H        1.6686783876   -2.4057864056    4.3863488068
H        2.6799850227   -0.9403515100    4.4574017221
H        0.9227615438   -0.7986303183    4.5782352783
H        1.9416369920   -0.0026057028   -3.3284789539
H        2.7598127428    0.5222332808   -1.8526047656
19   

C        0.2906643052   -1.0117295798    0.6577485480
C        2.6853310629   -1.0602833203    0.4798933182
C        0.4232131094   -1.1461446536    2.0492943304
C        2.7485089495   -1.1948399087    1.8784728589
C        1.4345688903   -0.9654566919   -0.1504500218
C        1.2291305677   -0.8766067200   -1.6517648908
C        1.7359819668   -1.3906465563    4.0939050902
N        1.6332647971   -1.2399100280    2.6344173927
N        2.1941727446   -0.2254026256   -2.3577727673
O        0.2351227890   -1.2921970085   -2.2139708019
H       -0.6956199453   -0.9590578791    0.1982840302
H        3.6009083293   -1.0593085573   -0.1054932780
H       -0.4787225971   -1.1856993227    2.6548224529
H        3.7235489509   -1.2777788447    2.3519017287
H        1.7146924695   -2.4504908291    4.3693600571
H        2.6670503138   -0.9470359150    4.4607004112
H        0.9063848671   -0.8775458008    4.5907588446
H        2.0119454590   -0.1232370699   -3.3522703424
H        2.9406573523    0.2877724800   -1.9083970074
19   

C        0.2747098674   -1.0570422231    0.6535228051
C        2.6698686359   -0.9836280312    0.4862576703
C        0.4085310970   -1.2197078713    2.0417057448
C        2.7333779507   -1.1497918470    1.8816364621
C        1.4172333481   -0.9317593144   -0.1484124152
C        1.1919696050   -0.8068594927   -1.6473013411
C        1.7223741434   -1.4427531618    4.0873748176
N        1.6189922477   -1.2677320631    2.6306347594
N        2.2464915644   -0.3744029988   -2.3936322456
O        0.1318525380   -1.0586325590   -2.1865513143
H       -0.7138462453   -1.0366094245    0.1960846433
H        3.5903484483   -0.9202078988   -0.0863588419
H       -0.4928945088   -1.3164730850    2.6415466472
H        3.7091097553   -1.1944871572    2.3587434885
H        1.7219133462   -2.5074870008    4.3439821283
H        2.6439261926   -0.9876638657    4.4639942462
H        0.8822092368   -0.9543933456    4.5914561557
H        2.0601969456   -0.2728285714   -3.3874798122
H        3.0955733439   -0.0113885610   -1.9836300788
19   

C        0.2849806638   -1.1327645467    0.6470202411
C        2.6717087872   -0.8957626696    0.4869007571
C        0.4307308765   -1.3424774611    2.0274708960
C        2.7459147918   -1.1125565843    1.8750670808
C        1.4177264141   -0.9065802578   -0.1474163771
C        1.1587426288   -0.6842814193   -1.6329146483
C        1.7550126049   -1.5422286827    4.0680799308
N        1.6420387977   -1.3343153148    2.6163371133
N        2.2353888489   -0.4622999018   -2.4305900043
O        0.0461927088   -0.6904647984   -2.1238585921
H       -0.7064594108   -1.1455754002    0.1955196334
H        3.5848721475   -0.7208140450   -0.0728955162
H       -0.4625817089   -1.5155818651    2.6222782125
H        3.7214274310   -1.1005189623    2.3545157483
H        1.8058329546   -2.6118237289    4.2975609034
H        2.6537217600   -1.0529726168    4.4569175443
H        0.8930132840   -1.1069744295    4.5840057968
H        2.0243753233   -0.3197468652   -3.4143805043
H        3.1880471931   -0.4644458718   -2.0961847607
