46

C     -4.00050    3.06830    6.10094
C     -5.26595    1.40996    7.30828
C     -4.45000    4.06411    6.97245
C     -5.72879    2.38903    8.19234
C     -4.39687    1.73125    6.25522
C     -5.30973    3.70206    8.00466
C     -4.08192   -2.39338    2.41772
C     -3.67232   -0.21234    2.03608
C     -1.08207   -1.50041    1.04542
C     -4.02461   -3.86755    2.17678
C     -2.76323   -4.23118    1.37359
C     -2.61802   -3.31860    0.14613
C      0.90428   -0.01344    0.71705
C     -0.78693    0.50045   -0.56048
C     -2.49350   -1.82852    0.52317
C      0.57770    1.14290   -0.24573
C     -3.94795    0.67616    5.27225
C     -4.90187    0.59737    4.06561
N     -4.71756   -1.76627    3.36824
N     -3.46325   -1.50800    1.55731
N     -4.49638   -0.41614    3.11283
N     -0.35121   -0.65177    0.27410
O     -3.20621    0.83614    1.57749
O     -0.62955   -2.02204    2.06325
F     -5.75128    4.66237    8.86046
F      1.41626    1.22471   -1.32478
F      0.52777    2.38131    0.31728
H     -3.32642    3.33662    5.29048
H     -5.58275    0.37843    7.44550
H     -4.14328    5.09994    6.86356
H     -6.39669    2.14783    9.01371
H     -4.05979   -4.38792    3.13688
H     -4.91958   -4.16646    1.61564
H     -1.87813   -4.13367    2.00617
H     -2.82906   -5.27310    1.04544
H     -1.74207   -3.60197   -0.44469
H     -3.49530   -3.43184   -0.50233
H      1.80760   -0.57815    0.47666
H      0.89095    0.26653    1.77359
H     -1.63714    1.03754   -0.13271
H     -0.93761    0.26309   -1.61640
H     -2.71673   -1.20971   -0.34910
H     -3.91190   -0.30762    5.75005
H     -2.94142    0.89785    4.90310
H     -5.91855    0.36678    4.39391
H     -4.91909    1.54964    3.53064
