24   

C       -2.3375651222   -2.2523546022    1.5195067360
C       -4.1284791846    1.8600280078    2.3107388088
C       -4.6385746912   -0.4635425495    2.6506523240
C       -5.3741891218    2.2119866566    2.8429051388
C       -5.8856763248   -0.1054303417    3.1767492709
C       -3.7276663147    0.5161019433    2.1948062695
C       -6.2666245241    1.2324409174    3.2776417135
C       -2.3901568827    0.2463691725    1.6059966131
C       -0.3696257212   -1.0527428876    0.8011800953
C       -1.7355851253   -0.9573049848    1.3446762704
C        1.6313291551    1.8713510635    1.1446194365
N       -2.7847910613   -3.3213751338    1.6388966730
N        0.5973867405   -0.2022592971    0.7263207960
O        0.4439251975    1.0907179775    1.2804463391
Cl      -7.8241005574    1.6703983865    3.9345499674
H       -3.4660664822    2.6533844626    1.9837001525
H       -4.4349113086   -1.5220768655    2.6226626418
H       -5.6555375371    3.2556827053    2.9197870753
H       -6.5683171575   -0.8779586005    3.5118630520
H       -1.8740134969    1.1459725432    1.3042099107
H       -0.0963296584   -2.0275011757    0.4114569567
H        1.4455866852    2.8893777059    1.4988420409
H        1.9397895543    1.9140216988    0.0954533134
H        2.4392135630    1.4324949014    1.7377981992
24   

C       -2.2844868117   -2.2454691416    1.5651327103
C       -4.1940652519    1.8551065315    2.1710870433
C       -4.5885724578   -0.4540620642    2.7077645458
C       -5.4168995937    2.2008353088    2.7577992447
C       -5.8124986046   -0.1026354598    3.2897228692
C       -3.7486883019    0.5214426779    2.1253092502
C       -6.2395171398    1.2248755714    3.3202046371
C       -2.4422219115    0.2540570860    1.4720678343
C       -0.4373548208   -1.0072448735    0.6072751960
C       -1.7708317108   -0.9438636456    1.2377005839
C        1.6299233698    1.7783691731    1.3660867482
N       -2.6660230260   -3.3193372315    1.8064969188
N        0.5489456292   -0.1778049219    0.6231290584
O        0.4154488575    1.0282252483    1.3536769471
Cl      -7.7678666866    1.6546843715    4.0471886874
H       -3.5855765281    2.6442754664    1.7443609894
H       -4.3428316976   -1.5036836700    2.7402171392
H       -5.7349699408    3.2365928498    2.7778611782
H       -6.4402834565   -0.8720150865    3.7245276994
H       -1.9579038480    1.1408319929    1.0837641325
H       -0.2028629522   -1.9417105617    0.1092039874
H        1.4650494063    2.7387278360    1.8629331441
H        1.9714448534    1.9646267783    0.3431532841
H        2.4055378495    1.2286567145    1.9077624421
24   

C       -2.2014762762   -2.2074926695    1.6283605722
C       -4.2564182264    1.8499053622    2.0969005035
C       -4.5706513471   -0.4517780390    2.7137602416
C       -5.4599638038    2.1840357162    2.7284176808
C       -5.7737981464   -0.1115639172    3.3437688841
C       -3.7805770384    0.5265085545    2.0703046046
C       -6.2308625862    1.2063404618    3.3573780777
C       -2.4976733271    0.2700671957    1.3697756835
C       -0.5021179045   -0.9380206954    0.4388648750
C       -1.8013247417   -0.9149542721    1.1508452071
C        1.6247776064    1.6730728167    1.5381190634
N       -2.4961590722   -3.2746552798    1.9908043424
N        0.5031068940   -0.1406384770    0.5380601091
O        0.3888099555    0.9703683668    1.4102181865
Cl      -7.7332782917    1.6221858299    4.1440651452
H       -3.6874447838    2.6395715296    1.6195478114
H       -4.2998304536   -1.4949112827    2.7575084718
H       -5.8030269826    3.2119858610    2.7322038362
H       -6.3616210913   -0.8820951647    3.8293998205
H       -2.0427566597    1.1511101227    0.9322328284
H       -0.3075996492   -1.8226446026   -0.1572147769
H        1.4863404050    2.5495424807    2.1776024450
H        1.9751144218    2.0046451383    0.5557974123
H        2.3822522838    1.0238196489    1.9875616984
24   

C       -2.0782022028   -2.1270413610    1.6999928338
C       -4.3209040736    1.8475576895    2.0208465741
C       -4.5339721958   -0.4425304073    2.7195986167
C       -5.5126052962    2.1615410475    2.6842494796
C       -5.7238539573   -0.1218496793    3.3841852811
C       -3.8002446874    0.5410595386    2.0206617646
C       -6.2251606407    1.1800659488    3.3734199491
C       -2.5339825386    0.3039432839    1.2856703599
C       -0.5399750684   -0.8445091345    0.2985601235
C       -1.8025910781   -0.8618576309    1.0870999530
C        1.6707075911    1.5442518001    1.6785118710
N       -2.2778406815   -3.1726990440    2.1731163266
N        0.4930966750   -0.1014586829    0.4732040384
O        0.4140961683    0.8984222111    1.4746925437
Cl      -7.7108863054    1.5716244043    4.2030808618
H       -3.7972334624    2.6392005919    1.4971662152
H       -4.2267419655   -1.4748837230    2.7803006352
H       -5.8917339321    3.1766068358    2.6664436840
H       -6.2664641340   -0.8950188410    3.9160067678
H       -2.1157155525    1.1814395580    0.8048710612
H       -0.4008861999   -1.6618498041   -0.3998059389
H        1.5771906279    2.2915090791    2.4716937493
H        1.9914809930    2.0431538711    0.7589205870
H        2.4292514357    0.8118145232    1.9711666030
24   

C       -1.9593587537   -1.9841903262    1.7756269911
C       -4.4617708355    1.8452855756    1.8971383789
C       -4.4920456426   -0.3952695129    2.7675342086
C       -5.6483508334    2.1285047621    2.5831922270
C       -5.6766179376   -0.1048418246    3.4551106673
C       -3.8528369970    0.5797016773    1.9708099167
C       -6.2665259708    1.1566385604    3.3702182628
C       -2.6000942122    0.3712668649    1.2052094717
C       -0.5913677596   -0.7076714819    0.1827039262
C       -1.8084924971   -0.7598974629    1.0500869482
C        1.7804409906    1.3455083065    1.7992091567
N       -2.0628537588   -2.9973352720    2.3413836047
N        0.4870932254   -0.0532008256    0.4128416858
O        0.4875535825    0.7948269662    1.5486171525
Cl      -7.7451391146    1.5104823885    4.2290139901
H       -4.0131199345    2.6281647187    1.2963518382
H       -4.1116064915   -1.3974198468    2.8900000020
H       -6.0973396653    3.1118628549    2.5066981883
H       -6.1450863830   -0.8699030740    4.0636010212
H       -2.2471494182    1.2386960952    0.6581035827
H       -0.5491613715   -1.4131792361   -0.6389021591
H        1.7631625393    1.9183935711    2.7307496497
H        2.0702304518    2.0106444535    0.9801527901
H        2.5225367036    0.5463570249    1.8904340384
24   

C       -1.8204039539   -1.7665053661    1.8704163927
C       -4.7137573210    1.7777006461    1.7018077001
C       -4.4389071655   -0.3151590898    2.8519807402
C       -5.8938958571    2.0157245131    2.4155300380
C       -5.6193571212   -0.0708593138    3.5641549047
C       -3.9566269460    0.6089041530    1.8994018312
C       -6.3580943368    1.0938588539    3.3539506744
C       -2.7212732043    0.4431578832    1.0958678771
C       -0.6367086240   -0.5113007818    0.1076312839
C       -1.7989260670   -0.5941815260    1.0501650071
C        1.9805580076    1.0623362879    1.8711405654
N       -1.8226630839   -2.7375561878    2.5142924825
N        0.4983718764    0.0267339744    0.3584962557
O        0.6407663225    0.6326575889    1.6320188311
Cl      -7.8296663966    1.3910542494    4.2456641638
H       -4.3875745367    2.5199885626    0.9822911293
H       -3.9349624995   -1.2408949434    3.0822444279
H       -6.4582457329    2.9246048420    2.2425474514
H       -5.9668507056   -0.7957612874    4.2913607469
H       -2.4961180485    1.2677930415    0.4286505121
H       -0.7530899591   -0.9829653762   -0.8609411243
H        2.0617762458    1.4697159532    2.8829335326
H        2.2596990562    1.8397137475    1.1535002028
H        2.6719400296    0.2197685722    1.7733594736
24   

C       -1.6789809878   -1.4939832064    1.9678020214
C       -4.9959013960    1.6191463101    1.5011780333
C       -4.3760881305   -0.1992592516    2.9460747548
C       -6.1719742817    1.8039075696    2.2369473879
C       -5.5558642792   -0.0117384072    3.6764010378
C       -4.0697833852    0.6135635103    1.8327790061
C       -6.4644214903    0.9889861945    3.3306310884
C       -2.8494886368    0.4972928379    0.9978810010
C       -0.6615269247   -0.2592715571    0.0810745943
C       -1.7741845763   -0.3789471581    1.0744385095
C        2.2074927610    0.7388893683    1.8789534086
N       -1.5904937355   -2.4176017042    2.6727528420
N        0.5292294732    0.1428865108    0.3309301293
O        0.8228200340    0.4564662138    1.6820650252
Cl      -7.9325477640    1.2180728506    4.2477434003
H       -4.8064683868    2.2756263366    0.6596431260
H       -3.7301455521   -0.9907329030    3.2931085567
H       -6.8674635944    2.5875772967    1.9600475051
H       -5.7683710526   -0.6511894671    4.5255230672
H       -2.7685833968    1.2361860253    0.2085032712
H       -0.9108406904   -0.4136052118   -0.9620328008
H        2.3848200475    0.9961857930    2.9271314152
H        2.5138459811    1.5815358992    1.2517116720
H        2.8110834827   -0.1371005993    1.6230766039
24   

C       -2.2439047991   -2.3543558026    1.8998735438
C       -4.2731684115    1.7196448431    1.5833937748
C       -4.3838527793   -0.2842770235    2.9065208210
C       -5.3859743143    2.2298967809    2.2614276868
C       -5.5002228792    0.2293045704    3.5777470062
C       -3.7459826539    0.4502065531    1.8830371412
C       -6.0123904494    1.4883868756    3.2631059569
C       -2.5612969652   -0.0031980510    1.1143330834
C       -0.6748079127   -1.3588787566    0.2536256830
C       -1.8425303048   -1.1919826809    1.1630587128
C        2.0341654076   -2.5762762208    2.1710749575
N       -2.5683259190   -3.3135102337    2.4769441138
N        0.5147122748   -1.7077308038    0.5856394239
O        0.7477265838   -1.9993745250    1.9534647454
Cl      -7.4030746081    2.1233780136    4.1067487763
H       -3.8162165957    2.3296568534    0.8126251097
H       -4.0498169908   -1.2587796307    3.2276824546
H       -5.7704512916    3.2117416691    2.0110017305
H       -5.9744990080   -0.3570278732    4.3564157344
H       -2.1752967557    0.7273130636    0.4122439598
H       -0.7980674065   -1.0248408750   -0.7697930640
H        2.1752262628   -2.7665074940    3.2389099698
H        2.8169700345   -1.8934245386    1.8273269496
H        2.1195000460   -3.5229784441    1.6292808589
24   

C       -2.0704835847   -2.1765831022    2.0973384390
C       -4.3910589175    1.6979419166    1.5157932686
C       -4.3517509107   -0.2101318544    2.9771491645
C       -5.5424352377    2.1673821700    2.1577726457
C       -5.5071259562    0.2618941795    3.6120429303
C       -3.7683670891    0.4970209166    1.9029750904
C       -6.1137233936    1.4522686389    3.2101235173
C       -2.5497842366    0.0847359902    1.1635633454
C       -0.5779881383   -1.1589223108    0.3723664611
C       -1.7447115288   -1.0443273593    1.2781984468
C        2.0639458268   -2.8405404961    2.0267721636
N       -2.3362992280   -3.1104146333    2.7423212162
N        0.5878657615   -1.6353078195    0.6300090262
O        0.8393064268   -2.1143687628    1.9401961773
Cl      -7.5525856130    2.0359501237    4.0088207577
H       -3.9805593143    2.2858044201    0.7028305300
H       -3.9453358149   -1.1303916710    3.3671473200
H       -6.0005880552    3.0964253729    1.8390782355
H       -5.9379023779   -0.3028959492    4.4308800464
H       -2.2220406973    0.7992426693    0.4168212231
H       -0.6754070119   -0.6943793342   -0.6017888707
H        2.1982936867   -3.2123157686    3.0466377237
H        2.9061101951   -2.1895633064    1.7737029757
H        2.0480994147   -3.6920382120    1.3399002574
24   

C       -1.9331843839   -2.0117265858    2.3022586233
C       -4.4546561066    1.6850494596    1.4837236171
C       -4.3563201593   -0.1587717173    3.0222308544
C       -5.6387748636    2.1256381216    2.0851111756
C       -5.5439407884    0.2846830680    3.6171117972
C       -3.7837361712    0.5315568191    1.9311254378
C       -6.1965342800    1.4283140274    3.1562231054
C       -2.5334457654    0.1497204994    1.2273496960
C       -0.4981836799   -1.0008384557    0.5017708120
C       -1.6683757304   -0.9290097054    1.3971401852
C        2.0865216849   -3.0258625943    1.8565267981
N       -2.1511295789   -2.9042535580    3.0199335658
N        0.6362471710   -1.5849676878    0.6701434873
O        0.8890436950   -2.2521002424    1.8942995306
Cl      -7.6757079345    1.9762660750    3.9050169686
H       -4.0573026687    2.2583527602    0.6540005837
H       -3.9197452110   -1.0444826314    3.4562605463
H       -6.1333262003    3.0180936174    1.7196450552
H       -5.9643403696   -0.2661868277    4.4507012372
H       -2.2407344750    0.8474583050    0.4508530030
H       -0.5664908648   -0.4295935350   -0.4165367828
H        2.2058860696   -3.5619275666    2.8024798425
H        2.9515301908   -2.3726149716    1.7083392243
H        2.0413141226   -3.7542598883    1.0413774669
24   

C       -3.0037669818   -1.9072035395    0.4048070009
C       -4.0618558797    2.0851304985    2.3031549762
C       -4.5763443888   -0.2496250291    2.5461130817
C       -4.9574614155    2.3914407019    3.3336218234
C       -5.4731642075    0.0635528811    3.5750476601
C       -3.8475092368    0.7600283666    1.8790391925
C       -5.6731768379    1.3836864265    3.9788760189
C       -2.8742482147    0.5439793122    0.7776658974
C       -1.4551786517   -0.4364430594   -0.9468528024
C       -2.4541737722   -0.6113352694    0.1190144262
C       -0.0626536972   -3.4973568065   -2.1183065438
N       -3.4558521098   -2.9594381225    0.6237262200
N       -0.7349434441   -1.2952464606   -1.5813668447
O       -0.8267641796   -2.6679775952   -1.2454103943
Cl      -6.7921354787    1.7656912618    5.2637483087
H       -3.5276696915    2.9013462960    1.8304624507
H       -4.4862975425   -1.2984243743    2.3122615994
H       -5.1014783489    3.4213421695    3.6389115265
H       -6.0214572651   -0.7307510567    4.0685472252
H       -2.4055956085    1.4592691301    0.4343204621
H       -1.2589447357    0.5865397373   -1.2454360932
H       -0.2081571714   -4.5466991481   -1.8459236761
H        1.0005427653   -3.2539131108   -2.0333057413
H       -0.3836757203   -3.3537005851   -3.1543235749
24   

C       -2.8064510763   -1.9340898269    0.6016928390
C       -4.1005826253    2.0891614511    2.2728718570
C       -4.5687921784   -0.2494550742    2.5658912119
C       -5.0370951718    2.4026639133    3.2640243034
C       -5.5048852908    0.0707300516    3.5570184331
C       -3.8397615434    0.7580844787    1.8956682581
C       -5.7487013670    1.3964052755    3.9159714218
C       -2.8260385452    0.5361317172    0.8321666107
C       -1.3163649093   -0.4483061282   -0.8066626124
C       -2.3401342554   -0.6264459398    0.2329625435
C       -0.1534758923   -3.4866487604   -2.2637576798
N       -3.1822282434   -2.9974094808    0.8979615680
N       -0.6806834443   -1.3002315620   -1.5344412011
O       -0.9399046293   -2.6842558335   -1.3855915991
Cl      -6.9175863659    1.7871966455    5.1528509799
H       -3.5714784837    2.9048096279    1.7935296297
H       -4.4525374508   -1.3016301149    2.3612126138
H       -5.2165290410    3.4370960952    3.5331007030
H       -6.0505304639   -0.7224107602    4.0553075380
H       -2.3904661864    1.4566317204    0.4605118445
H       -1.0303015015    0.5760338463   -1.0139346070
H       -0.4019201556   -4.5415741222   -2.1157429736
H        0.9107226537   -3.3415173380   -2.0556138989
H       -0.3572516561   -3.2182166634   -3.3046074875
24   

C       -2.6037150066   -1.9405237091    0.7925119273
C       -4.1288898673    2.0903441079    2.2375547775
C       -4.5528504300   -0.2517459143    2.5687164731
C       -5.1059130429    2.4034491673    3.1889656891
C       -5.5277974472    0.0679588240    3.5217928797
C       -3.8231845422    0.7577312643    1.9022718810
C       -5.8141528272    1.3951888847    3.8416286039
C       -2.7699893968    0.5350738791    0.8784609160
C       -1.1717387396   -0.4595188385   -0.6722969044
C       -2.2227508215   -0.6306577548    0.3430446736
C       -0.3008247838   -3.4776928255   -2.3496261777
N       -2.8998298171   -3.0057616751    1.1627718555
N       -0.6315431738   -1.3036699054   -1.4813762099
O       -1.0809424504   -2.6466577083   -1.4926021967
Cl      -7.0323612100    1.7854896265    5.0301269688
H       -3.6038078368    2.9072397321    1.7559190301
H       -4.4099948061   -1.3048803824    2.3863319269
H       -5.3198643075    3.4390983492    3.4262315604
H       -6.0713834814   -0.7266470809    4.0199939092
H       -2.3628963412    1.4554652755    0.4754350291
H       -0.7922055738    0.5482498029   -0.7927631975
H       -0.6572546865   -4.5096042824   -2.2818008976
H        0.7513840161   -3.4472580137   -2.0513690446
H       -0.3916493413   -3.1394066486   -3.3860564384
24   

C       -2.3822467273   -1.9342920784    0.9819202827
C       -4.1496700728    2.0772584896    2.1943722141
C       -4.5111218021   -0.2692376743    2.5681172352
C       -5.1674790511    2.3806476246    3.1053943534
C       -5.5256619883    0.0407978539    3.4822047218
C       -3.7905964119    0.7478108827    1.9037607053
C       -5.8637926155    1.3653651704    3.7603796731
C       -2.6990736763    0.5319531406    0.9207620211
C       -1.0146782546   -0.4750098126   -0.5425437729
C       -2.0923631645   -0.6314481071    0.4525429521
C       -0.4938674199   -3.4498955966   -2.4119251416
N       -2.5973642981   -2.9927854451    1.4206394238
N       -0.5810479191   -1.3027337013   -1.4276379628
O       -1.2097066520   -2.5664990549   -1.5509544645
Cl      -7.1318697502    1.7437292801    4.8995573447
H       -3.6351755750    2.8984935678    1.7087054874
H       -4.3315322688   -1.3209590666    2.4095769774
H       -5.4228919991    3.4140412779    3.3090692453
H       -6.0602259862   -0.7591101855    3.9816575831
H       -2.3187901507    1.4487143402    0.4844175996
H       -0.5471291678    0.5015425262   -0.5874580739
H       -0.9934480308   -4.4226768347   -2.4354791316
H        0.5288179824   -3.5870612212   -2.0481083837
H       -0.4635624550   -3.0429589940   -3.4270262795
24   

C       -2.1693763200   -1.9215364679    1.1806625953
C       -4.1794529631    2.0576950476    2.1125184445
C       -4.4465020661   -0.2834345310    2.5874451649
C       -5.2400166935    2.3549881531    2.9756522619
C       -5.5035601749    0.0207535387    3.4539946016
C       -3.7511036537    0.7345535803    1.8986766168
C       -5.9105043075    1.3396589578    3.6573605274
C       -2.6203061778    0.5208192176    0.9619854597
C       -0.8439075396   -0.5089418113   -0.3960750777
C       -1.9560263726   -0.6386659650    0.5740871196
C       -0.7201907259   -3.3775654539   -2.4701404282
N       -2.3190484358   -2.9636241113    1.6810205640
N       -0.5247051474   -1.3040526962   -1.3544188793
O       -1.3175638941   -2.4620228655   -1.5539085341
Cl      -7.2315438065    1.7107387205    4.7372175362
H       -3.6868921226    2.8778169779    1.6028261087
H       -4.2136248374   -1.3316738313    2.4823129837
H       -5.5494212438    3.3835034468    3.1206236824
H       -6.0175161045   -0.7792259939    3.9745091510
H       -2.2641721589    1.4265309692    0.4840543093
H       -0.2842519401    0.4185624855   -0.3679298931
H       -1.3525681007   -4.2648199568   -2.5664310019
H        0.2660358083   -3.6845100976   -2.1092594484
H       -0.6141669208   -2.9102428237   -3.4537160660
24   

C       -1.9618382707   -1.9123904372    1.4231887960
C       -4.2098899495    2.0167529219    1.9901477390
C       -4.3613234012   -0.2914541892    2.6441959499
C       -5.3107825403    2.3192438650    2.7994541233
C       -5.4590863891    0.0182623361    3.4563380269
C       -3.7033112090    0.7077909022    1.8942163649
C       -5.9442514863    1.3235118996    3.5429699103
C       -2.5361386046    0.4836968915    1.0067313433
C       -0.6713298334   -0.5808436197   -0.2283932748
C       -1.8111469812   -0.6687101956    0.7262932735
C       -0.9782211161   -3.2381803966   -2.5394631914
N       -2.0584385811   -2.9235134770    1.9946245665
N       -0.4720696734   -1.3200230093   -1.2584505560
O       -1.4100398361   -2.3538824313   -1.5066722285
Cl      -7.3156669395    1.7013855047    4.5555824873
H       -3.7482165661    2.8205981955    1.4282837514
H       -4.0666287838   -1.3293657735    2.6286535191
H       -5.6810524054    3.3363625440    2.8535152751
H       -5.9433864340   -0.7667418175    4.0257890508
H       -2.2084568293    1.3640769197    0.4653189830
H       -0.0129137272    0.2740344886   -0.1292319809
H       -1.7366181823   -4.0090832466   -2.7034748009
H       -0.0391035497   -3.7215784661   -2.2540383852
H       -0.8290931165   -2.6850894206   -3.4717033673
24   

C       -2.7750763730   -1.6415483457    0.1851310177
C       -3.6708501928    1.5632156849    3.3221668990
C       -4.8006278551   -0.1615448547    2.0863522661
C       -4.8596472081    1.8576921087    3.9994390903
C       -5.9862145754    0.1354886256    2.7694080900
C       -3.6081866446    0.5466862325    2.3518008407
C       -6.0285780191    1.1454451362    3.7309983692
C       -2.3053912010    0.3107160472    1.6833426274
C       -0.5259410879   -0.6120492509    0.2060571793
C       -1.9375490094   -0.6014390722    0.7022061101
C       -0.6264596036    0.4089005879   -3.1715983226
N       -3.4334874588   -2.5064157006   -0.2348219164
N       -0.1358068793   -0.2412133178   -0.9569651526
O       -1.1448208393    0.1707901280   -1.8637492157
Cl      -7.5115657712    1.5114552261    4.5770234782
H       -2.7858077184    2.1422026107    3.5598700874
H       -4.8661350518   -0.9516499319    1.3545616091
H       -4.8797769652    2.6473154534    4.7414687540
H       -6.8873728967   -0.4249682861    2.5483478366
H       -1.5096670186    0.9788723066    1.9932061548
H        0.2502582561   -0.8417962405    0.9263208595
H       -1.4327097917    0.7412459980   -3.8317722616
H       -0.1926098721   -0.5095404157   -3.5782964578
H        0.1440842220    1.1850305052   -3.1367038003
24   

C       -2.7790387869   -1.9152037591    0.3546117579
C       -3.6953207766    1.7219454612    2.9806390094
C       -4.7588738513   -0.2798931619    2.1806170363
C       -4.8624785667    2.0666398740    3.6717982069
C       -5.9242620121    0.0709361356    2.8728115484
C       -3.6116252625    0.5424167034    2.2190132531
C       -5.9885209970    1.2446081059    3.6243905810
C       -2.3330295622    0.2600161883    1.5228929021
C       -0.5583397116   -0.8588911705    0.1693292580
C       -1.9458142884   -0.8154070930    0.7339882373
C       -0.6996152484    0.7417460780   -2.9698171659
N       -3.4308139458   -2.8296480676    0.0439674549
N       -0.1841475263   -0.3502671353   -0.9450962576
O       -1.1720154386    0.3510786951   -1.6810016776
Cl      -7.4453893255    1.6749599129    4.4853976516
H       -2.8429553172    2.3887745347    3.0431249697
H       -4.8027743919   -1.2040923603    1.6257221849
H       -4.8989940407    2.9812659895    4.2519743509
H       -6.7919611334   -0.5770649833    2.8253370210
H       -1.5671722403    1.0173037631    1.6488935069
H        0.1879291486   -1.4027881886    0.7362541346
H       -1.5071389053    1.2248379548   -3.5273188121
H       -0.3587964460   -0.1342445789   -3.5301525652
H        0.1307893465    1.4469171978   -2.8678461332
24   

C       -2.7784924222   -2.1329244016    0.5281639594
C       -3.7275815140    1.7934731458    2.6787596153
C       -4.7120762361   -0.3618466602    2.2738977101
C       -4.8674759898    2.1807804424    3.3925469070
C       -5.8516253554    0.0326525020    2.9853293560
C       -3.6192317964    0.5155979370    2.1014783164
C       -5.9413167383    1.3046220336    3.5515225376
C       -2.3710963285    0.1933906498    1.3684156074
C       -0.6171275668   -1.0473501612    0.0925855276
C       -1.9609721403   -0.9785651576    0.7450245941
C       -0.7131214025    1.0254431747   -2.7616961495
N       -3.4144569387   -3.0919896869    0.3465042460
N       -0.2442146510   -0.4224458250   -0.9631557509
O       -1.1598718314    0.5132666011   -1.5064329574
Cl      -7.3650157485    1.7884422901    4.4392369655
H       -2.9151055187    2.5040255321    2.5781251734
H       -4.7313465553   -1.3639600359    1.8746268230
H       -4.9232391223    3.1710567107    3.8292190921
H       -6.6786896915   -0.6586687161    3.0997082101
H       -1.6448072970    0.9976544266    1.3237794920
H        0.0571877882   -1.8176931439    0.4481543983
H       -1.4819959200    1.6748866449   -3.1898535967
H       -0.5166828017    0.2047460570   -3.4584962145
H        0.2043507421    1.6058383646   -2.6251957910
24   

C       -2.7938317289   -2.2821252747    0.6732330714
C       -3.7697980771    1.8041630813    2.4840645442
C       -4.6947520078   -0.4101116656    2.3438229029
C       -4.8890473416    2.2264153387    3.2105680502
C       -5.8135977135    0.0188413813    3.0680673938
C       -3.6426326485    0.4786094429    2.0315784737
C       -5.9225387246    1.3381224631    3.5085960479
C       -2.4182911067    0.1236751076    1.2734472496
C       -0.7136005239   -1.1923728431   -0.0040303020
C       -2.0063385797   -1.0866337586    0.7267614363
C       -0.6360363450    1.2017591276   -2.6038575260
N       -3.4021382167   -3.2742279322    0.6203845934
N       -0.3019883649   -0.4844557437   -0.9935787822
O       -1.1187982640    0.5990244312   -1.4032867160
Cl      -7.3202491090    1.8649164158    4.4129907544
H       -2.9887422787    2.5256557465    2.2729393973
H       -4.6966791175   -1.4478950728    2.0491068469
H       -4.9601096721    3.2536795159    3.5483453771
H       -6.6090665255   -0.6827203496    3.2918713118
H       -1.7155862378    0.9382925670    1.1366437847
H       -0.1152581355   -2.0711830774    0.2076025116
H       -1.3038131637    2.0146926634   -2.9030063486
H       -0.5974438879    0.4620848420   -3.4094015716
H        0.3670096886    1.6089375362   -2.4440345822
24   

C       -2.7889644805   -2.3645686435    0.7919289066
C       -3.8048746429    1.8038876111    2.3716866463
C       -4.6992236264   -0.4270462532    2.3637889772
C       -4.9017321600    2.2415509810    3.1228998290
C       -5.7941458695    0.0165969607    3.1151746922
C       -3.6726455012    0.4613023460    1.9735497843
C       -5.9068836322    1.3519826193    3.5024842472
C       -2.4708225828    0.0922581897    1.1849859476
C       -0.8159179975   -1.2735207655   -0.1204371556
C       -2.0577708428   -1.1355286286    0.6758838724
C       -0.5094797774    1.3306970085   -2.5028146437
N       -3.3477885545   -3.3835832551    0.8717184356
N       -0.3458310392   -0.5129112420   -1.0460099146
O       -1.0573606822    0.6712877022   -1.3614311796
Cl      -7.2749450246    1.8970256361    4.4407866829
H       -3.0455553475    2.5273015423    2.0973175818
H       -4.7004323148   -1.4758491048    2.1120149756
H       -4.9771281681    3.2819262889    3.4167058767
H       -6.5679176637   -0.6862488184    3.4021850118
H       -1.7888940051    0.9136409437    0.9981927257
H       -0.2858551249   -2.2126732818   -0.0076245523
H       -1.0543206227    2.2607645272   -2.6883608381
H       -0.5945722093    0.6892705692   -3.3852172672
H        0.5453954122    1.5673998303   -2.3330193126
24   

C       -2.7815145362   -2.3991857624    0.9062001447
C       -3.8490719861    1.8150175300    2.2950579597
C       -4.7193047160   -0.4236769915    2.3778519490
C       -4.9160559543    2.2594437506    3.0844345058
C       -5.7821422088    0.0260824945    3.1704842942
C       -3.7181730399    0.4642399448    1.9244056322
C       -5.8914500787    1.3687004161    3.5324057120
C       -2.5457829288    0.0888275278    1.0939507472
C       -0.9450626231   -1.3233069336   -0.2483162967
C       -2.1293498216   -1.1518267352    0.6163826867
C       -0.3577932618    1.4239859301   -2.4200587775
N       -3.2741788413   -3.4324645606    1.1221544501
N       -0.4089312742   -0.5383205065   -1.1185803382
O       -0.9991635775    0.7279494134   -1.3514169427
Cl      -7.2197167508    1.9213602616    4.5220366586
H       -3.1120334550    2.5399939732    1.9689841965
H       -4.7263288953   -1.4767011561    2.1449635917
H       -4.9908451673    3.3060386178    3.3553790540
H       -6.5336697196   -0.6777022562    3.5096123784
H       -1.8928844464    0.9194464330    0.8583476457
H       -0.4840842306   -2.3044844517   -0.2155091300
H       -0.7818511406    2.4278899814   -2.5132254235
H       -0.5086490816    0.8877015737   -3.3617677054
H        0.7157080274    1.5112857460   -2.2259054696
24   

C       -2.7625250196   -2.4233510535    0.9849671145
C       -3.9352815667    1.8079122519    2.1874735812
C       -4.7206384080   -0.4516670772    2.4169251916
C       -4.9681634395    2.2522095892    3.0208893822
C       -5.7478913310   -0.0019300036    3.2552819925
C       -3.7782021245    0.4466518656    1.8675743945
C       -5.8819790443    1.3510152803    3.5666263898
C       -2.6426530988    0.0745281442    0.9845683609
C       -1.0839655371   -1.3696797884   -0.3937241613
C       -2.2076454588   -1.1732093543    0.5384782330
C       -0.1696194704    1.4804504048   -2.3200960913
N       -3.1756842973   -3.4587967712    1.3228928686
N       -0.4793282197   -0.5709315366   -1.2063911282
O       -0.9251872730    0.7651816968   -1.3427008981
Cl      -7.1657119900    1.9035745878    4.6134262343
H       -3.2459774735    2.5420766163    1.7862003093
H       -4.7083429703   -1.5131761453    2.2269985449
H       -5.0639473587    3.3070132168    3.2502041313
H       -6.4520956186   -0.7139501799    3.6702626211
H       -2.0455800612    0.9233221754    0.6844235311
H       -0.6973039906   -2.3820535010   -0.4418685073
H       -0.4737763966    2.5310794611   -2.3245631325
H       -0.3451104529    1.0573185318   -3.3137137315
H        0.8989181938    1.4239191310   -2.0903765294
24   

C       -2.3715542403   -2.2612576559    1.4629268454
C       -4.0654354782    1.8165450414    2.5493210904
C       -4.7181135260   -0.4957464823    2.5172568332
C       -5.3424417328    2.1719956293    2.9977990140
C       -5.9946725235   -0.1334343766    2.9641624646
C       -3.7168104932    0.4766711580    2.2940668912
C       -6.3202382310    1.2005188106    3.2082783811
C       -2.3336625484    0.2081053043    1.8180526723
C       -0.3066549176   -1.1016173049    1.0097831080
C       -1.7047745089   -0.9856679089    1.4557584021
C        1.6027907571    1.9101152780    0.8969265685
N       -2.8641904960   -3.3168744701    1.4499391932
N        0.6380703922   -0.2364984354    0.8541275615
O        0.4308131337    1.1322240775    1.1392039640
Cl      -7.9146314264    1.6434234462    3.7656837306
H       -3.3370619538    2.6052488616    2.3986663146
H       -4.5665323983   -1.5520569975    2.3641834165
H       -5.5809191660    3.2124036135    3.1851694759
H       -6.7442383271   -0.8998993902    3.1245993640
H       -1.7528755714    1.1125369377    1.7462499679
H        0.0122759881   -2.1066333928    0.7545648478
H        1.3976338474    2.9623161534    1.1141245943
H        1.9072013237    1.8187170451   -0.1501605511
H        2.4207652547    1.5699364590    1.5392041430
