27   

C        2.4219752272    1.0560798967   -0.4338567426
C        1.4079088748    0.2197548805   -0.8841628630
C        0.6220298661   -4.1137005791   -1.5090548548
C        2.2409645921    1.7965074599    0.7346311279
C        1.5952384577   -2.6943461989   -0.0816760992
C        0.4730904664   -2.8253622324   -0.8622485340
C        0.2378737306    0.1304941820   -0.1226693418
C        0.1121451601    0.9602435772    1.0299239605
C        1.8128147301   -4.6351384514   -1.0938451453
C       -0.7348448637   -1.9778032921   -1.0471709078
C       -2.1547425574   -0.1440609162   -0.1612382562
C       -2.1376359042    0.1305147217    1.3459947224
N        1.1099410378    1.7547451951    1.4462310650
N       -0.8470585374   -0.6876063779   -0.5115221851
O       -1.7234988655   -2.4605738505   -1.6018475186
O        2.4284516613   -3.7758373375   -0.2234415546
O       -1.0615280200    0.9974541761    1.7590349065
Br       2.5237063813   -6.3210541234   -1.6355209515
H        3.3520429323    1.1484455340   -0.9815726121
H        1.5264207459   -0.3403167050   -1.8066073737
H       -0.0821269898   -4.5784207344   -2.1924127920
H        3.0432878795    2.4403382936    1.0762269886
H        1.8078159785   -1.8730659922    0.5919470534
H       -2.9709063164   -0.8353912028   -0.3942743370
H       -2.3331490213    0.7841818752   -0.7139926958
H       -3.0917350662    0.5815560627    1.6355205558
H       -2.0474351252   -0.8204277533    1.8809027672
27   

C        2.4070462828    0.9625110947   -0.4198260004
C        1.3828704174    0.1263723865   -0.8456743028
C        0.6895244295   -4.0408144366   -1.6362501900
C        2.2303832110    1.7488105248    0.7181827228
C        1.4512520578   -2.7821613440    0.0481165459
C        0.4406688394   -2.8329804391   -0.8773501237
C        0.2036170025    0.0843022675   -0.0920661204
C        0.0873477733    0.9552166992    1.0312821377
C        1.8417190190   -4.5863508787   -1.1480007136
C       -0.7867114330   -2.0086418702   -1.0270931651
C       -2.1966025288   -0.1796908567   -0.1043635677
C       -2.1619673123    0.1464448241    1.3913838336
N        1.0948187276    1.7499870986    1.4235510884
N       -0.8934560667   -0.7334880942   -0.4559693309
O       -1.7945065342   -2.5112702930   -1.5253022508
O        2.3312307268   -3.8217117359   -0.1220766218
O       -1.0849776101    1.0314806404    1.7589709627
Br       2.6548975526   -6.1903617726   -1.7858815581
H        3.3418253911    1.0192355278   -0.9644459087
H        1.5036652870   -0.4656406953   -1.7474798836
H        0.0744569448   -4.4398468260   -2.4367958034
H        3.0406666654    2.3927734030    1.0401907255
H        1.5448201750   -2.0427944711    0.8354022578
H       -3.0146031869   -0.8796849746   -0.3021789335
H       -2.3839222802    0.7292830669   -0.6855419467
H       -3.1140815824    0.6040095005    1.6770454574
H       -2.0607245428   -0.7850195988    1.9575619623
27   

C        2.3768793836    0.9230997533   -0.4281024503
C        1.3466284842    0.0835438463   -0.8308980155
C        0.7674891581   -3.9151383550   -1.7733271011
C        2.2091998345    1.7356308804    0.6919124501
C        1.3265356065   -2.8657767764    0.1195690725
C        0.4210063895   -2.8098804713   -0.9054660756
C        0.1678729203    0.0640478108   -0.0734716042
C        0.0638014817    0.9591742474    1.0325344805
C        1.8857524094   -4.4953336274   -1.2468463099
C       -0.8359345832   -2.0217124363   -1.0067229410
C       -2.2366886363   -0.2005505084   -0.0477001960
C       -2.1788543305    0.1571087884    1.4392902743
N        1.0768510357    1.7581206532    1.4017647139
N       -0.9379472478   -0.7561419832   -0.4137929271
O       -1.8608175294   -2.5567581415   -1.4279679523
O        2.2539179554   -3.8551132387   -0.0927674670
O       -1.1016516447    1.0559508270    1.7683569203
Br       2.8018801835   -5.9934655888   -1.9933165143
H        3.3095374778    0.9619983269   -0.9779251670
H        1.4656415624   -0.5244712575   -1.7218836213
H        0.2382628478   -4.2275498692   -2.6679085279
H        3.0242308023    2.3826830590    0.9951979260
H        1.3083457159   -2.2328938556    1.0000057951
H       -3.0555921258   -0.9070245182   -0.2161602231
H       -2.4383246212    0.6957248771   -0.6437009197
H       -3.1285922312    0.6157631394    1.7309886042
H       -2.0622925891   -0.7613690494    2.0232978876
27   

C        2.3824973961    0.8430930918   -0.4036542003
C        1.3408249745    0.0033458543   -0.7745602151
C        0.8386905908   -3.8202425267   -1.7770911366
C        2.2253558262    1.7016616414    0.6822789603
C        1.1914135193   -3.0201275735    0.2780025072
C        0.3974508850   -2.8307478625   -0.8175879479
C        0.1591811901    0.0293814010   -0.0199783678
C        0.0690615734    0.9689228277    1.0505763146
C        1.9126533128   -4.4554154552   -1.2222711344
C       -0.8776963695   -2.0641840818   -0.8981090442
C       -2.2514556414   -0.2027091210    0.0259221239
C       -2.1810613843    0.2121033762    1.4966849083
N        1.0927611083    1.7683855338    1.3885405626
N       -0.9615226381   -0.7861950992   -0.3293160575
O       -1.9176971618   -2.6248877223   -1.2379990768
O        2.1557470607   -3.9658115037    0.0339206184
O       -1.0937324881    1.1125892638    1.7826948242
Br       2.9255282342   -5.8382169446   -2.0605348001
H        3.3160340921    0.8464069314   -0.9533228886
H        1.4567042828   -0.6358964588   -1.6433011550
H        0.4024619088   -4.0226321731   -2.7498456301
H        3.0492111174    2.3489433317    0.9601354896
H        1.0667199774   -2.5083468704    1.2260228025
H       -3.0799768607   -0.9049120934   -0.1096755482
H       -2.4475692838    0.6721939668   -0.6028466124
H       -3.1244082603    0.6916812336    1.7751468911
H       -2.0695729658   -0.6836299791    2.1157827855
27   

C        2.3836116492    0.7854638078   -0.4439938359
C        1.3213601101   -0.0428484183   -0.7807996785
C        0.8601106124   -3.6844663717   -1.8036686334
C        2.2563619487    1.6749402163    0.6205231819
C        1.0684362295   -3.1764234084    0.3602748619
C        0.3463587292   -2.8394739172   -0.7468406872
C        0.1491138383    0.0259098633   -0.0142613652
C        0.0913477717    0.9943683607    1.0331231508
C        1.9077988902   -4.3821435542   -1.2740883846
C       -0.9420306558   -2.0837557990   -0.7849409179
C       -2.2646256811   -0.1523391429    0.0692166577
C       -2.1677481459    0.2959903978    1.5278126098
N        1.1339958523    1.7827365208    1.3375825546
N       -0.9924647907   -0.7747696818   -0.2861896215
O       -2.0006725493   -2.6673462019   -1.0039991188
O        2.0626149074   -4.0708159225    0.0508452215
O       -1.0583759880    1.1802036789    1.7766376512
Br       2.9958889873   -5.6245798576   -2.2295974514
H        3.3104732905    0.7556147780   -1.0039327309
H        1.4156640630   -0.7048374317   -1.6344371393
H        0.4904515677   -3.7543518833   -2.8213156444
H        3.0958834810    2.3128743184    0.8717479807
H        0.8721590436   -2.8035678000    1.3595219278
H       -3.1130802236   -0.8346036348   -0.0418941727
H       -2.4463222078    0.7120168157   -0.5782255372
H       -3.0972489950    0.8025169453    1.8050815470
H       -2.0674595606   -0.5865689155    2.1673686792
27   

C        2.4343289232    0.6685294293   -0.5284386497
C        1.3382448714   -0.1259491750   -0.8384875197
C        0.8594742757   -3.5228203762   -1.8350253842
C        2.3497775303    1.5868632621    0.5159370746
C        0.9707426780   -3.3846212515    0.3945674313
C        0.2776698084   -2.8912907385   -0.6699280488
C        0.1765981479    0.0069340114   -0.0669899059
C        0.1644001310    1.0000247343    0.9593817398
C        1.9036249608   -4.2797054514   -1.3848891501
C       -1.0047449091   -2.1208092699   -0.6272724720
C       -2.2369662036   -0.0593712452    0.0274449793
C       -2.1218862836    0.4108771945    1.4772743747
N        1.2384070966    1.7547767616    1.2381965199
N       -0.9968375523   -0.7551330321   -0.3072817274
O       -2.0853172415   -2.7023094449   -0.6733534962
O        1.9974847594   -4.1964441123   -0.0201795903
O       -0.9710623249    1.2459976497    1.7082948893
Br       3.0635215833   -5.3166050934   -2.4893773856
H        3.3551752742    0.5898805324   -1.0933077611
H        1.3973508170   -0.8111966387   -1.6756712692
H        0.5359088234   -3.4230089193   -2.8656692485
H        3.2147951645    2.1978421580    0.7467008739
H        0.7353001778   -3.1772090365    1.4325582413
H       -3.1223355052   -0.6934749741   -0.0805372479
H       -2.3681346241    0.8010726302   -0.6370870215
H       -3.0262193332    0.9670960217    1.7422643424
H       -2.0654318825   -0.4630035523    2.1340696956
27   

C        2.1499593069    1.6595028597   -0.0466662113
C        1.4693447571    0.4783327696    0.2177940790
C        1.1558467427   -1.5068438037   -2.2098022754
C        1.4421352113    2.7881699850   -0.4549115276
C        2.0106590930   -2.8991593359   -0.6836494761
C        0.8692632937   -2.2134426087   -0.9767355599
C        0.0804860080    0.4523163582    0.0370501308
C       -0.5691763548    1.6650964670   -0.3417125159
C        2.4175345272   -1.8691269047   -2.5841376714
C       -0.3122911924   -2.0128148807   -0.0843297102
C       -2.0509937383   -0.4288155723    0.7490787958
C       -2.6989896774    0.5254970564   -0.2549763448
N        0.1126415847    2.7942976780   -0.5900383281
N       -0.7001044177   -0.7102805496    0.2704216329
O       -1.1123461569   -2.9198301643    0.1307817775
O        2.9590465324   -2.7249177206   -1.6608340947
O       -1.9448497571    1.7373372189   -0.4536020277
Br       3.3102631501   -1.2645563999   -4.1578047178
H        3.2259158661    1.7181405728    0.0638146368
H        2.0178777246   -0.3894830027    0.5631566071
H        0.4975421865   -0.8294060955   -2.7438324248
H        1.9883647691    3.7012004631   -0.6619348239
H        2.1602961861   -3.4880863564    0.2145365983
H       -2.0024508760    0.0409577798    1.7370715418
H       -2.6656087685   -1.3292702098    0.8430064456
H       -2.8069914361    0.0130287556   -1.2162204332
H       -3.7021201920    0.7831466187    0.0980458752
27   

C        2.0339881133    1.7439512070   -0.2716869367
C        1.3947935249    0.5352461755   -0.0298589054
C        0.9299322843   -1.2715974308   -2.4570968662
C        1.2777167976    2.8907543134   -0.5041346568
C        1.7751605004   -2.9532407808   -1.2477093795
C        0.6989997579   -2.1155184366   -1.2998871418
C       -0.0060872347    0.5016926421   -0.0567504482
C       -0.7013824446    1.7312827354   -0.2580252029
C        2.0915862775   -1.7024564217   -3.0299888131
C       -0.3403489719   -1.9698123172   -0.2406036901
C       -2.0433233587   -0.4749269052    0.8031037213
C       -2.7994851954    0.5545700748   -0.0387981762
N       -0.0586073821    2.8871274086   -0.4881073778
N       -0.7455557935   -0.6896190266    0.1694219885
O       -1.0294220677   -2.9255795242    0.1109736875
O        2.6257827325   -2.7340234398   -2.3030559313
O       -2.0807732910    1.7918671968   -0.2066226936
Br       2.8706350384   -0.9705547162   -4.6100045263
H        3.1152227756    1.8093872842   -0.2787741643
H        1.9848598537   -0.3500323393    0.1768958675
H        0.3011460727   -0.4624211033   -2.8142578644
H        1.7916741037    3.8255341475   -0.6963287940
H        1.9471401455   -3.6843474573   -0.4653258964
H       -1.9000591677   -0.0969274930    1.8208257119
H       -2.6375147875   -1.3915435297    0.8686513046
H       -3.0035051645    0.1279192862   -1.0259696170
H       -3.7622523095    0.7631980142    0.4375093306
27   

C        1.9228063928    2.2451169368    0.4958500015
C        1.4829956314    0.9287760740    0.5390060211
C        1.9235935752   -0.7160891288   -1.9510740806
C        1.0288815222    3.2613461952    0.1646136253
C        2.6322404356   -2.5340160297   -0.8506429574
C        1.5436619145   -1.7172730717   -0.9719578377
C        0.1464959120    0.6591739203    0.2150946468
C       -0.7108073451    1.7638297515   -0.0670374965
C        3.1869652182   -1.0319324846   -2.3610688751
C        0.3290972189   -1.8118124319   -0.1172267022
C       -1.8016321746   -0.7246537726    0.5826804981
C       -2.5549969200    0.2296733073   -0.3470074800
N       -0.2599722838    3.0278860219   -0.1014590675
N       -0.3879397967   -0.6558568476    0.2268419262
O       -0.1856667723   -2.9017984157    0.1307515879
O        3.6402935323   -2.1418481782   -1.6968416568
O       -2.0603578613    1.5821052547   -0.3005195460
Br       4.1852850758   -0.0677554282   -3.6699187122
H        2.9528069471    2.4945689956    0.7201190048
H        2.1725373912    0.1407744190    0.8207219327
H        1.3241502727    0.1142700942   -2.3101873271
H        1.3890125730    4.2831220275    0.1299422082
H        2.6979065448   -3.3739779786   -0.1675137863
H       -1.9367028458   -0.4200901040    1.6258105644
H       -2.2125184682   -1.7329013405    0.4712226669
H       -2.4775377556   -0.1382447844   -1.3750300779
H       -3.6145499766    0.2279139148   -0.0737272746
27   

C        2.1439182409    1.7535215962    0.3707632384
C        1.5053352163    0.5399706848    0.5898135208
C        2.0236819890   -1.6139052655   -1.4325888386
C        1.4603565620    2.7889454021   -0.2641675826
C        2.0959533606   -3.4443754315   -0.1382302824
C        1.3037925951   -2.3655411756   -0.4213422423
C        0.1900888485    0.3860782326    0.1334045411
C       -0.4506676296    1.5119283436   -0.4630676054
C        3.1742193527   -2.3052997027   -1.6836970610
C        0.0222769917   -2.1031460243    0.2842891723
C       -1.9739784402   -0.6295239330    0.4841794211
C       -2.4679823664    0.2046953908   -0.7010200261
N        0.1900457780    2.6743709750   -0.6641366526
N       -0.5372001291   -0.8176009628    0.3147075724
O       -0.6524201854   -3.0356222783    0.7230644259
O        3.2403120009   -3.4263239533   -0.8975021531
O       -1.7780016887    1.4618118541   -0.8436685541
Br       4.5013648553   -1.7933780237   -2.9550641716
H        3.1670585679    1.9088417844    0.6908528795
H        2.0261123892   -0.2603198534    1.1045703156
H        1.7126576767   -0.6975792583   -1.9237027946
H        1.9743919255    3.7282287106   -0.4327892912
H        1.8575128513   -4.2101526972    0.5922138458
H       -2.1717052746   -0.1044505104    1.4245297381
H       -2.5183879107   -1.5788019637    0.5071910873
H       -2.3397703728   -0.3727821601   -1.6220876734
H       -3.5381098328    0.3971077090   -0.5777812783
27   

C        2.0254591666    2.1073669768    0.6401385676
C        1.4951921126    0.8329305109    0.7934180586
C        2.2463728999   -1.2021289662   -1.2891638044
C        1.2554340227    3.1100108550    0.0527162621
C        2.2635820606   -3.2101070061   -0.2842429381
C        1.5226408873   -2.0611816056   -0.3701565069
C        0.2001219279    0.5891482118    0.3209352405
C       -0.5358948075    1.6829663936   -0.2227165341
C        3.3586471005   -1.8963879430   -1.6718762919
C        0.2394416862   -1.9101261312    0.3632556101
C       -1.8682035974   -0.6201881778    0.6263808698
C       -2.4357419195    0.2211831908   -0.5209711590
N        0.0013498377    2.9052395726   -0.3622423184
N       -0.4215501645   -0.6773134463    0.4488879743
O       -0.3231616892   -2.8980220499    0.8392607729
O        3.3925575397   -3.1235094794   -1.0616440108
O       -1.8547595222    1.5371406452   -0.6084513026
Br       4.6728047419   -1.2619789922   -2.9009616178
H        3.0294715491    2.3356482552    0.9765503861
H        2.0800987552    0.0545358727    1.2721260543
H        1.9635560043   -0.2171985650   -1.6453789043
H        1.6850227954    4.0983116464   -0.0639695900
H        1.9993359280   -4.0750689939    0.3149788750
H       -2.1074150737   -0.1577258788    1.5896266882
H       -2.3275355232   -1.6136169825    0.6047092960
H       -2.2629991397   -0.3017783399   -1.4670277805
H       -3.5178942821    0.3168015416   -0.3895072873
27   

C        2.3269717602    1.8636373781   -0.5030351921
C        1.5169185805    0.8036118639   -0.8904205605
C        2.1954337538   -1.9002274023    0.2946997917
C        1.9075927181    2.7173176876    0.5169177861
C        1.3887264879   -3.6127286648   -0.9143624988
C        1.0961087892   -2.3214185667   -0.5555801647
C        0.3067077876    0.6126762852   -0.2158301775
C       -0.0698837327    1.5602901318    0.7807129538
C        3.0663192652   -2.9512594873    0.3488898421
C       -0.2114801005   -1.7240833468   -0.9375628832
C       -1.9943771234   -0.0899972372   -0.3858379968
C       -2.1661477272    0.3910938897    1.0589794772
N        0.7336787358    2.5735685949    1.1400907299
N       -0.5865175497   -0.4271789229   -0.5636215470
O       -1.0283310265   -2.3917337384   -1.5756158390
O        2.5974838348   -4.0037888528   -0.3930563078
O       -1.3021836485    1.4926029714    1.4028931536
Br       4.6927090641   -2.9711850645    1.3464077008
H        3.2794555632    2.0412475608   -0.9872283599
H        1.8216706462    0.1464650333   -1.6985278571
H        2.3135370769   -0.9658507979    0.8316992971
H        2.5525151230    3.5373552498    0.8110065512
H        0.7549164374   -4.2498101190   -1.5223208522
H       -2.6509781723   -0.9484879238   -0.5601611542
H       -2.2801325426    0.7016357229   -1.0861806707
H       -3.2070608353    0.6922154122    1.2118945484
H       -1.9604220629   -0.4411112030    1.7398749181
27   

C        2.3054109447    1.7852247672   -0.4836234938
C        1.4833138070    0.7241925024   -0.8402880765
C        2.0997837741   -1.9433182588    0.4039719615
C        1.8931003110    2.6763967711    0.5058598959
C        1.4925105914   -3.5225807487   -1.0722985548
C        1.0552101383   -2.3484953684   -0.5185140411
C        0.2667257612    0.5680942656   -0.1653983738
C       -0.0998518193    1.5524364183    0.7991992576
C        3.0756751130   -2.8956589515    0.3245488343
C       -0.2666874435   -1.7698734242   -0.8720753403
C       -2.0420962653   -0.1291735085   -0.2964722439
C       -2.2010199449    0.4073650050    1.1294570405
N        0.7148475504    2.5675228493    1.1277132341
N       -0.6371048976   -0.4777322963   -0.4755742368
O       -1.1103521121   -2.4572747123   -1.4506326085
O        2.7276542725   -3.8658583941   -0.5793213939
O       -1.3319858151    1.5186843889    1.4238213604
Br       4.6889829380   -2.8936981162    1.3430611553
H        3.2624818532    1.9340505841   -0.9685896105
H        1.7872144393    0.0415104650   -1.6268974398
H        2.1111037003   -1.0813393951    1.0626352217
H        2.5478604070    3.4968394811    0.7761615158
H        0.9419462281   -4.1069923700   -1.8019514237
H       -2.7029594037   -0.9913631188   -0.4315702313
H       -2.3316502308    0.6364140268   -1.0237757437
H       -3.2398507973    0.7174471903    1.2783265012
H       -1.9920067655   -0.3987440467    1.8399826042
27   

C        2.3668496527    1.4318702586   -0.3831968077
C        1.4604008849    0.4466700226   -0.7522524294
C        1.8623497267   -2.2563154052    0.4854404383
C        2.0369118959    2.3289985835    0.6310939820
C        1.3228314152   -3.6176222767   -1.2136926912
C        0.8356822240   -2.5612609668   -0.4937184315
C        0.2427835920    0.3686460220   -0.0643520576
C       -0.0337675111    1.3558331546    0.9270532314
C        2.8687578022   -3.1573740416    0.2852871185
C       -0.4657813573   -1.9123995073   -0.8005690969
C       -2.1130797397   -0.1588292593   -0.1619129765
C       -2.2062514951    0.3590801453    1.2760534212
N        0.8609053992    2.2976662117    1.2657703329
N       -0.7404472894   -0.6045617760   -0.3755220613
O       -1.3866784194   -2.5618310757   -1.2979353571
O        2.5604737921   -3.9963039390   -0.7541061608
O       -1.2545636770    1.3997614133    1.5727350037
Br       4.4751593190   -3.2470110826    1.3105639605
H        3.3275717977    1.5160478589   -0.8764768722
H        1.7039567903   -0.2385158964   -1.5571398152
H        1.8405588486   -1.4871982301    1.2506645348
H        2.7573451919    3.0888323990    0.9113577773
H        0.8055869402   -4.0910391930   -2.0414317162
H       -2.8393504088   -0.9658270891   -0.3009393698
H       -2.3582931896    0.6410474339   -0.8683997971
H       -3.2171372344    0.7396438179    1.4511682271
H       -2.0423142932   -0.4740971764    1.9668669289
27   

C        2.3004632430    1.6906530056   -0.3250501418
C        1.4941671089    0.6047300391   -0.6390668033
C        1.9216870805   -1.9126653235    0.9718006164
C        1.8308828240    2.6697954579    0.5479658888
C        1.8319544537   -3.2759625070   -0.8033629504
C        1.0768531548   -2.3677677302   -0.1165150068
C        0.2316747972    0.5126423060   -0.0376290046
C       -0.1874864348    1.5827323647    0.8074855271
C        3.0933578452   -2.6063045877    0.8716798909
C       -0.2577527185   -1.8825736840   -0.5610110395
C       -2.0698558342   -0.2049273550   -0.2253358200
C       -2.3049080921    0.4668257954    1.1297077150
N        0.6120595278    2.6223099578    1.0944090924
N       -0.6570454517   -0.5637527995   -0.2966473054
O       -1.1085647162   -2.6669856154   -0.9798521902
O        3.0593780837   -3.4457911378   -0.2112480954
O       -1.4545666802    1.6072967068    1.3575970735
Br       4.5721176155   -2.4336383961    2.0644998982
H        3.2905391803    1.7899051821   -0.7532165200
H        1.8501642631   -0.1438068159   -1.3381090437
H        1.6759846286   -1.1797455499    1.7335424501
H        2.4744387462    3.5086032118    0.7870510081
H        1.5107212351   -3.7866232653   -1.7047761350
H       -2.7271359421   -1.0756960405   -0.3124608920
H       -2.3182188652    0.4865706332   -1.0372859299
H       -3.3504455400    0.7836485382    1.1915708649
H       -2.1329629304   -0.2648445079    1.9254844986
27   

C        2.3607074814    1.3010437084    0.2747401492
C        1.4781013564    0.2895010248   -0.0799597872
C        1.1064705228   -1.9694303104    1.9523171624
C        1.8793147262    2.4508529116    0.8971135810
C        1.4097770378   -3.4085873868    0.2666026006
C        0.5313179284   -2.4659790496    0.7164593656
C        0.1202556661    0.4468969096    0.2295223319
C       -0.2921406541    1.6751973671    0.8270401571
C        2.2485900052   -2.6852758133    2.1677238744
C       -0.6277457944   -1.9230713458   -0.0486464584
C       -2.1778984452    0.0042138405   -0.3754124114
C       -2.5773371494    0.8928553850    0.8040818029
N        0.5821900627    2.6383846876    1.1585316341
N       -0.8535222789   -0.5378321365   -0.0854826581
O       -1.5308834224   -2.6584041054   -0.4430041028
O        2.4524110365   -3.5739062459    1.1446412241
O       -1.6251176393    1.9389027301    1.0773797837
Br       3.4052112100   -2.4759716633    3.6702098334
H        3.4207518193    1.2107122498    0.0709114235
H        1.8510966534   -0.5923789272   -0.5877152942
H        0.7074266417   -1.1912217251    2.5948581585
H        2.5817719425    3.2291332279    1.1723180002
H        1.3088852743   -3.9446172647   -0.6707922933
H       -2.9331594383   -0.7763401318   -0.5090564848
H       -2.1422779166    0.5949575731   -1.2967802069
H       -3.5518660845    1.3437844129    0.5936798314
H       -2.6857637158    0.2713791202    1.6986084771
27   

C        2.4182264563    1.2797510893   -0.1548165427
C        1.4784564835    0.3252715963   -0.5211278487
C        1.3610539794   -2.2510440886    1.2858096686
C        2.0582414358    2.3041820583    0.7184566683
C        1.5458415046   -3.2071001642   -0.7267317654
C        0.6610800771   -2.5118927374    0.0432518535
C        0.1921291219    0.4091341417    0.0270470535
C       -0.1030084194    1.5151300167    0.8790602181
C        2.5800940988   -2.8564591397    1.1826727718
C       -0.6336252736   -1.9108334344   -0.3984702757
C       -2.1756600556    0.0467671999   -0.2684887213
C       -2.3745493497    0.7165572172    1.0918600580
N        0.8240523576    2.4252565107    1.2164560572
N       -0.8319647312   -0.5255938789   -0.2773663387
O       -1.6230648122   -2.6072845595   -0.6105624752
O        2.7123727565   -3.4506885899   -0.0451317154
O       -1.3738217909    1.7110072773    1.3859792092
Br       3.9178630035   -2.8660339452    2.5425232737
H        3.4291790311    1.2421804049   -0.5419704165
H        1.7518220101   -0.4535913259   -1.2225342715
H        0.9914829580   -1.6937434993    2.1403955123
H        2.8044524381    3.0387706301    0.9984503235
H        1.3629833607   -3.5096146823   -1.7519225140
H       -2.9585223713   -0.7020287104   -0.4228268583
H       -2.2668311623    0.7878711093   -1.0695083101
H       -3.3623421816    1.1867153986    1.1139753955
H       -2.3542006591   -0.0496095094    1.8734389594
27   

C        2.3571930884    1.0137219140    0.2722505079
C        1.4953823147   -0.0457939242    0.5241139077
C        1.7816757665   -3.6065399600    0.5501669987
C        1.8973994935    2.1286254517   -0.4254510877
C        1.3593169734   -2.8847797976   -1.5242594599
C        0.8600787442   -2.8361563108   -0.2572634838
C        0.1821853592    0.0315774170    0.0426403940
C       -0.2153643600    1.2276835151   -0.6289979201
C        2.7988480411   -3.9865099829   -0.2785262638
C       -0.5006478667   -2.3680094688    0.1542464646
C       -2.1500606364   -0.5149646710    0.3597041328
C       -2.4417723231    0.3222687881   -0.8854176096
N        0.6384119361    2.2371038057   -0.8592504032
N       -0.7748575855   -0.9958701093    0.2520555482
O       -1.4402620728   -3.1560445216    0.2176174318
O        2.5652964934   -3.5405594366   -1.5531857403
O       -1.5155313938    1.4115491079   -1.0607481923
Br       4.3244985140   -5.0024014102    0.2513516681
H        3.3834488279    0.9894712892    0.6178397050
H        1.8478332667   -0.8933015214    1.0998265992
H        1.6902022387   -3.8429554498    1.6049768475
H        2.5831546934    2.9461218404   -0.6158249229
H        0.8645935634   -2.4741875971   -2.3974952636
H       -2.2563304229    0.1003554646    1.2592926994
H       -2.8798253412   -1.3273169376    0.4314955749
H       -2.4035297131   -0.3234304428   -1.7685058447
H       -3.4568397559    0.7243913496   -0.8122550263
27   

C        2.2941024795    1.0798476010    0.2194742197
C        1.4515353020    0.0088246646    0.4857101556
C        1.7153480446   -3.7918928012    0.4939453162
C        1.8190631208    2.1694372381   -0.5069149328
C        1.3704276319   -2.7278819763   -1.4382702664
C        0.8732864465   -2.8208125590   -0.1714222059
C        0.1410146308    0.0476024503   -0.0118657206
C       -0.2735686054    1.2209098073   -0.7117056262
C        2.7027441979   -4.1252437224   -0.3885548082
C       -0.4637155455   -2.3542933068    0.3054128386
C       -2.1866274712   -0.5543611899    0.2802393313
C       -2.4727233040    0.2586451898   -0.9827295320
N        0.5624758292    2.2421685280   -0.9554506177
N       -0.7962327032   -0.9956162900    0.2153445526
O       -1.3606336980   -3.1623726954    0.5332638816
O        2.5178900190   -3.4683958127   -1.5763176514
O       -1.5727825402    1.3693972120   -1.1579849313
Br       4.1299039084   -5.3407706377   -0.0331741804
H        3.3168523472    1.0840835229    0.5764911698
H        1.8183078754   -0.8175386990    1.0843724282
H        1.5926134393   -4.1827263360    1.4985940684
H        2.4904699505    2.9962790130   -0.7079531879
H        0.9101957608   -2.1602207647   -2.2395119326
H       -2.3354171710    0.0676666895    1.1691974121
H       -2.8913830384   -1.3896702991    0.3376044725
H       -2.3987314481   -0.3980234811   -1.8552575862
H       -3.4993296422    0.6346722185   -0.9368416068
27   

C        2.2522303169    1.1993519210    0.2155648384
C        1.4635983000    0.0930076236    0.5017189498
C        1.7945117992   -3.8767117093    0.4123891531
C        1.7222255617    2.2531801266   -0.5258002242
C        1.5425922255   -2.5238128568   -1.3466547309
C        0.9999725157   -2.7914229945   -0.1217265165
C        0.1513584322    0.0609743927    0.0084058610
C       -0.3230845113    1.2014261540   -0.7065894718
C        2.7979481576   -4.1085799411   -0.4842810003
C       -0.3251580783   -2.3569610362    0.4030609338
C       -2.1416046247   -0.6539923850    0.3219591049
C       -2.4726489769    0.1269796606   -0.9510941537
N        0.4619338400    2.2575837550   -0.9704075357
N       -0.7309774795   -1.0235518938    0.2576512390
O       -1.1619095309   -3.1917576508    0.7413747121
O        2.6703023058   -3.2753320740   -1.5642060457
O       -1.6300743718    1.2786709178   -1.1476534775
Br       4.1747788048   -5.4137059300   -0.2800119417
H        3.2747001690    1.2590198718    0.5685994309
H        1.8708651465   -0.7071843498    1.1104842154
H        1.6278410394   -4.4073736486    1.3441221095
H        2.3520666243    3.1083140465   -0.7425049306
H        1.1281909633   -1.8255934905   -2.0656624225
H       -2.3207379755   -0.0297150646    1.2036931621
H       -2.7999293304   -1.5257447618    0.3896361445
H       -2.3695252280   -0.5372456344   -1.8149343420
H       -3.5166009395    0.4519106439   -0.9061029745
27   

C        2.2403474411    1.2677601021    0.2624678594
C        1.4699827157    0.1558410562    0.5766125010
C        1.7396397488   -3.9801516288    0.3932622537
C        1.6994160056    2.2846353959   -0.5224613782
C        1.6851612884   -2.3900706727   -1.1768883568
C        1.0395456683   -2.7889220987   -0.0376400848
C        0.1668023247    0.0821841568    0.0668728559
C       -0.3224058461    1.1868366855   -0.6919098611
C        2.7836724446   -4.1583077946   -0.4684655562
C       -0.2665460633   -2.3354370951    0.5099079826
C       -2.1107383010   -0.6672726378    0.3889496843
C       -2.4489133396    0.0612421927   -0.9138571072
N        0.4452861761    2.2482556993   -0.9833780642
N       -0.6934454367   -1.0114392212    0.3413276761
O       -1.0741326823   -3.1634821626    0.9297254437
O        2.7766587583   -3.1826889584   -1.4304628938
O       -1.6256569691    1.2202191807   -1.1496264219
Br       4.0639575119   -5.5695103230   -0.3670504014
H        3.2565790709    1.3607973507    0.6261795030
H        1.8806065552   -0.6199083965    1.2148150393
H        1.4824785584   -4.6142027326    1.2357615789
H        2.3149737315    3.1442035921   -0.7615527969
H        1.3701474005   -1.5723711409   -1.8157737411
H       -2.3058323578   -0.0156325665    1.2471379357
H       -2.7516774288   -1.5493900588    0.4846234581
H       -2.3294883500   -0.6323203876   -1.7522851976
H       -3.4988257790    0.3684469455   -0.8862316898
27   

C        2.2609888610    1.3133225773    0.2612312812
C        1.5012148764    0.2000424517    0.5970231980
C        1.6526478216   -4.0801923870    0.2424660690
C        1.7113519955    2.3080297415   -0.5468481029
C        1.8085125264   -2.3033146436   -1.1065353859
C        1.0554591213   -2.7994676703   -0.0735383783
C        0.2019218671    0.1038898323    0.0842509284
C       -0.2992485973    1.1874482280   -0.6959084917
C        2.7328015474   -4.2283159299   -0.5790432031
C       -0.2168325830   -2.3180848574    0.5247686698
C       -2.0628538971   -0.6538907781    0.4413717827
C       -2.4204237951    0.0421212235   -0.8748884665
N        0.4584475468    2.2496211998   -1.0093119403
N       -0.6448780751   -0.9916543289    0.3800588571
O       -0.9953176843   -3.1315269204    1.0235448904
O        2.8526137738   -3.1425305779   -1.4057898337
O       -1.6040818660    1.1978597261   -1.1508738258
Br       3.9056811447   -5.7333691586   -0.5921234853
H        3.2753159956    1.4250272920    0.6249669049
H        1.9135580370   -0.5628958710    1.2498798562
H        1.3047737832   -4.7900017308    0.9864839097
H        2.3185373942    3.1684477925   -0.8036423135
H        1.6058501001   -1.3854457319   -1.6466133398
H       -2.2496384036    0.0165591124    1.2867705606
H       -2.6971653381   -1.5372239644    0.5663517848
H       -2.3095655486   -0.6715099615   -1.6976119767
H       -3.4710961254    0.3462092627   -0.8416058546
27   

C        2.2456157850    1.3779163599    0.3181892044
C        1.4991305370    0.2601028233    0.6702902364
C        1.5379592054   -4.1555013693    0.0725639334
C        1.6952590463    2.3386015755   -0.5307929861
C        1.9465048221   -2.2315432402   -0.9905979282
C        1.0577642164   -2.8005211823   -0.1117688077
C        0.2158486323    0.1259665515    0.1302092075
C       -0.2917613395    1.1785742034   -0.6864353746
C        2.6714796425   -4.2843625053   -0.6762422187
C       -0.1921616792   -2.3076855345    0.5259105968
C       -2.0345716264   -0.6434947867    0.5034414650
C       -2.4026989725    0.0064490306   -0.8342847165
N        0.4531538475    2.2445743241   -1.0162955819
N       -0.6150317824   -0.9740583062    0.4407121654
O       -0.9485438457   -3.1192320802    1.0621617301
O        2.9429133124   -3.1123617851   -1.3301644074
O       -1.5911819580    1.1543993110   -1.1571795468
Br       3.7292468694   -5.8671384757   -0.8068212879
H        3.2497172790    1.5197306178    0.6992615487
H        1.9060701153   -0.4811031519    1.3512195743
H        1.0806615967   -4.9245703622    0.6875386176
H        2.2919789799    3.2021662230   -0.8011730148
H        1.8792597377   -1.2331862375   -1.4054091778
H       -2.2190675150    0.0536596004    1.3274286891
H       -2.6632948527   -1.5251832378    0.6635709360
H       -2.2956757718   -0.7351005475   -1.6325423046
H       -3.4541292010    0.3084119512   -0.8047023224
27   

C        2.2540805952    1.4611480090    0.3619308622
C        1.5227961023    0.3455950806    0.7528164923
C        1.4444841093   -4.2052096117   -0.0271034275
C        1.7090614291    2.3594736721   -0.5568762027
C        2.1135462997   -2.2182404607   -0.7984640626
C        1.0918125494   -2.7991277640   -0.0861505554
C        0.2641414044    0.1499136678    0.1785486402
C       -0.2452655927    1.1454418637   -0.7053139755
C        2.6244580713   -4.3548762193   -0.6947419079
C       -0.1399917539   -2.2859837211    0.5757855766
C       -1.9727693651   -0.6207162123    0.5765151971
C       -2.3436305919   -0.0572359467   -0.8003066484
N        0.4848828226    2.2091321410   -1.0729233655
N       -0.5511368124   -0.9461206090    0.5307901653
O       -0.8783715200   -3.0868508506    1.1523681256
O        3.0523640208   -3.1466420465   -1.1735617660
O       -1.5347222937    1.0696266030   -1.1982710894
Br       3.5517934167   -6.0052912406   -0.9342798858
H        3.2416930768    1.6494915371    0.7651143368
H        1.9203105685   -0.3501607109    1.4853149587
H        0.8755775348   -4.9935176376    0.4565317378
H        2.2937306426    3.2213051842   -0.8574221052
H        2.1911350989   -1.1771553187   -1.0810533148
H       -2.1601671247    0.1254088996    1.3556859316
H       -2.5973244807   -1.4931220524    0.7938144281
H       -2.2362449907   -0.8477853073   -1.5500689427
H       -3.3958140077    0.2435225269   -0.7889852279
