14   

C       -1.7011906896   -0.2959297918    0.1205197047
C        0.4076507823   -0.7134711401    0.1434816868
C        1.7730573129   -1.3318565289    0.0555675803
C        0.2773311457    0.8242679608    0.1942988081
N        1.3613757334    2.0365410086   -1.9197185953
N       -1.1913227891    0.9108314512    0.1723615806
N       -0.7573022440   -1.3064993733    0.0911883504
N        0.8682053094    1.4878202338   -0.9739555236
N        1.8227321580   -2.6275193672   -0.2958711529
O        2.7942452467   -0.6755389527    0.1547578686
H       -2.7725679866   -0.4822412395    0.0993090986
H        0.7080041253    1.2170656707    1.1249219393
H        2.7417109726   -3.0533835224   -0.3786888543
H        0.9749152909   -3.1821535541   -0.3713889213
14   

C       -1.7273878912   -0.3290658508    0.1096058346
C        0.3844786400   -0.7221975334    0.2211090475
C        1.7549254493   -1.3379939925    0.1760723541
C        0.2360204193    0.8170008366    0.1814011877
N        1.3688799630    1.9233675043   -1.9647662963
N       -1.2320605164    0.8847993236    0.1134076922
N       -0.7725796954   -1.3288754268    0.1532993529
N        0.8551160454    1.4210103326   -1.0042655244
N        1.8391590504   -2.5547442420   -0.3971478306
O        2.7631820574   -0.6933516345    0.4006185546
H       -2.7958368202   -0.5288625705    0.0707375785
H        0.6353776352    1.2651072201    1.1010747345
H        2.7656384967   -2.9654081872   -0.4741411367
H        1.0039933386   -3.1060423449   -0.5720887544
14   

C       -1.7313600061   -0.3398432133    0.0281183676
C        0.3690076636   -0.7524051844    0.2530198917
C        1.7269031564   -1.4014634872    0.2965033448
C        0.2382949966    0.7905043621    0.1545090687
N        1.4562108555    1.8098707813   -1.9879986510
N       -1.2248273065    0.8693738997    0.0240033102
N       -0.7897423656   -1.3473223631    0.1351076812
N        0.9068550151    1.3452487933   -1.0281131178
N        1.8911293754   -2.4848975083   -0.4952976491
O        2.7050858181   -0.8111664667    0.7159496070
H       -2.7993850818   -0.5307753061   -0.0483975198
H        0.6068758808    1.2664717308    1.0732298815
H        2.8230533127   -2.8900862099   -0.5202927604
H        1.0864239478   -3.0090148873   -0.8261529594
14   

C       -1.7346149539   -0.2961788883   -0.0345891456
C        0.3474558878   -0.7520451430    0.2677182009
C        1.6803901280   -1.4461387210    0.3928176440
C        0.2566422194    0.7940776668    0.1112689789
N        1.5279596321    1.7105690664   -2.0465486954
N       -1.2007094632    0.9011422308   -0.0569730962
N       -0.8201742910   -1.3216454928    0.1231815165
N        0.9571832942    1.2908142059   -1.0784351137
N        1.9729381869   -2.3616467768   -0.5622428206
O        2.5966581892   -0.9442979989    1.0160050982
H       -2.8046875564   -0.4650561822   -0.1313620029
H        0.6169640786    1.2942736875    1.0205466262
H        2.9052095238   -2.7647658604   -0.5154193966
H        1.2279044329   -2.8434242759   -1.0562231090
14   

C       -1.7534610416   -0.2775826934   -0.0181702288
C        0.3180538823   -0.7738718897    0.2958949870
C        1.6277624011   -1.5074585558    0.4643432764
C        0.2640426328    0.7698119380    0.0774664115
N        1.5299558014    1.5785122571   -2.1261795241
N       -1.1911245943    0.9049260930   -0.0884219785
N       -0.8635305666   -1.3180770273    0.1743132358
N        0.9633839629    1.2058914733   -1.1364400265
N        2.0526648457   -2.2348355626   -0.6018773895
O        2.4640853754   -1.1257586875    1.2600504514
H       -2.8278154803   -0.4242739819   -0.1028139304
H        0.6402154025    1.2970169215    0.9649380235
H        2.9793054720   -2.6416415511   -0.4997199514
H        1.3782059917   -2.6581738371   -1.2315805467
14   

C       -1.7680031052   -0.2460644444    0.0784333919
C        0.2996597480   -0.7920059971    0.3356095833
C        1.5871909244   -1.5656348305    0.5192980856
C        0.2807000240    0.7442573086    0.0490003350
N        1.4763584612    1.4389577262   -2.2315904071
N       -1.1751226362    0.9140329083   -0.0720616938
N       -0.9019330099   -1.3019450827    0.2908976667
N        0.9425182603    1.1158804441   -1.2067335949
N        2.1277107170   -2.0930091785   -0.6171458446
O        2.3326419355   -1.3501135278    1.4545870916
H       -2.8484765177   -0.3646055920    0.0401616296
H        0.6993790357    1.2988094082    0.9000629373
H        3.0428240726   -2.5170047660   -0.4815926160
H        1.5209701577   -2.4350968578   -1.3552410815
14   

C       -1.7830052952   -0.1865549657    0.2354845747
C        0.2774416643   -0.8051179342    0.3704896714
C        1.5384658250   -1.6240434986    0.5644918811
C        0.2934019919    0.7187467279    0.0131790579
N        1.3402335119    1.3014628177   -2.3699756694
N       -1.1600923595    0.9389915902   -0.0203972133
N       -0.9433418658   -1.2615065623    0.4521809197
N        0.8745248114    1.0259016282   -1.2988547514
N        2.1992214636   -1.9494307370   -0.5922723189
O        2.1516258670   -1.6505214871    1.6129167524
H       -2.8671063665   -0.2648747186    0.2750037634
H        0.7827977346    1.2946889677    0.8105421914
H        3.0900492759   -2.4141995494   -0.4275342024
H        1.6722438306   -2.1727325112   -1.4295685439
14   

C       -1.7822565323   -0.0887004446    0.4085911655
C        0.2545751482   -0.8047040013    0.3858589030
C        1.4831073331   -1.6721015969    0.5933588622
C        0.3027634664    0.7012822517   -0.0464225339
N        1.1194894460    1.1642432631   -2.5437514421
N       -1.1360677887    0.9906546914    0.0378626691
N       -0.9729460222   -1.1864168783    0.6172648587
N        0.7596606955    0.9387105386   -1.4210029325
N        2.2774708666   -1.8110286572   -0.5236492329
O        1.8931473454   -2.0366391253    1.6770965464
H       -2.8611102091   -0.1146623300    0.5441898069
H        0.8848532990    1.2910970366    0.6746680370
H        3.1183671857   -2.3561794688   -0.3406671049
H        1.8619060806   -1.8461932565   -1.4466210199
14   

C       -1.7614657011   -0.0206291997    0.5550529576
C        0.2390099571   -0.8274062185    0.3870258388
C        1.4329334211   -1.7487110592    0.5755436052
C        0.3093620072    0.6659019749   -0.0871899648
N        0.8673570766    1.0463510743   -2.6691925238
N       -1.1016736859    1.0233549000    0.1149676838
N       -0.9825158585   -1.1446833988    0.7263815330
N        0.6280820624    0.8558188227   -1.5079551009
N        2.3557810668   -1.7023535717   -0.4539749633
O        1.6538353761   -2.4247298194    1.5605302445
H       -2.8264415780    0.0005571257    0.7749611983
H        0.9802634667    1.2495695129    0.5574985530
H        3.1469073824   -2.3252506945   -0.2974864531
H        2.0863379203   -1.4777255679   -1.4020365975
14   

C       -1.7440549678    0.0401244697    0.6212221084
C        0.2232454515   -0.8375290676    0.3737468881
C        1.3764366113   -1.8157945417    0.5457294184
C        0.3118612943    0.6465596772   -0.1325364808
N        0.6858586697    0.9195366909   -2.7619202802
N       -1.0711949251    1.0579596128    0.1424715322
N       -0.9940601729   -1.1057830751    0.7691629021
N        0.5335457098    0.7803550113   -1.5784216110
N        2.4332023924   -1.6226293154   -0.3283450838
O        1.4315958775   -2.7110684314    1.3656612577
H       -2.7960397182    0.0978519373    0.8913630050
H        1.0418866248    1.2240897774    0.4502221535
H        3.1839369941   -2.3009849683   -0.2071591410
H        2.3880153035   -1.0650062270   -1.1684706508
14   

C       -1.7418870337   -0.3644459062   -0.1653222233
C        0.3485540042   -0.7484078713    0.2830202006
C        1.6090552851   -1.5423752629    0.5939521648
C        0.1247883611    0.8000940600    0.3898817965
N        1.3787930638    2.1746232116   -1.5254208567
N       -1.3121587343    0.8463084701    0.0918912073
N       -0.7705428225   -1.3347123952   -0.0574983393
N        0.8298238070    1.5509184658   -0.6575909169
N        2.7542834529   -0.7673156778    0.7026709921
O        1.6982903992   -2.7536592866    0.6408175280
H       -2.7740179782   -0.5862658124   -0.4270332720
H        0.3509180563    1.1762087524    1.3959886168
H        3.5973944155   -1.3152163029    0.8687506999
H        2.7787075208    0.2382323264    0.7907955506
14   

C       -1.7513687307   -0.3569983495   -0.1102409330
C        0.3455043941   -0.7562158356    0.2806253148
C        1.6294302241   -1.5332064724    0.5137434681
C        0.1503806891    0.7957634342    0.3433430871
N        1.4001031306    2.0680323867   -1.6437236601
N       -1.2941370757    0.8553194184    0.0863418812
N       -0.7916483218   -1.3387992677    0.0000810294
N        0.8496378245    1.4925644632   -0.7443459296
N        2.7221039350   -0.7306094263    0.8123324212
O        1.7838762823   -2.7280162278    0.3537939924
H       -2.7948395134   -0.5707230416   -0.3304526340
H        0.4074571388    1.2016357045    1.3296615923
H        3.5811581320   -1.2648750012    0.9366442782
H        2.6632765713    0.2087804823    1.1800332624
14   

C       -1.7647356911   -0.3478535328   -0.0313231726
C        0.3426580357   -0.7366986184    0.2981037189
C        1.6517761835   -1.4883338979    0.4544104601
C        0.1542394689    0.8166830181    0.3084826950
N        1.3690258828    1.9948674209   -1.7560857598
N       -1.2982380910    0.8702306031    0.0981525485
N       -0.8034825331   -1.3284209945    0.0824279982
N        0.8317409494    1.4628078643   -0.8229367406
N        2.6887786218   -0.7091008631    0.9405229988
O        1.8673753358   -2.6302851565    0.0992051586
H       -2.8158755189   -0.5663113313   -0.2056296726
H        0.4435873209    1.2595637850    1.2690812194
H        3.5616748683   -1.2292491840    1.0198164325
H        2.5496089706    0.1060085841    1.5230831712
14   

C       -1.7517010418   -0.3385322844    0.0232305599
C        0.3658459686   -0.7068239256    0.2950943158
C        1.6941680767   -1.4335579347    0.3945407396
C        0.1715100070    0.8460139922    0.2580722620
N        1.3303943031    1.9419757828   -1.8820151854
N       -1.2877443021    0.8855130114    0.0955700138
N       -0.7822824257   -1.3119433648    0.1368582771
N        0.8167703729    1.4476620671   -0.9155419896
N        2.6691108802   -0.7380782834    1.0790351526
O        1.9704016938   -2.4820044324   -0.1541443431
H       -2.8070283844   -0.5664885036   -0.1083617378
H        0.4937255904    1.3236679764    1.1909714232
H        3.5512313285   -1.2460530999    1.1257956389
H        2.4533504374   -0.0664620594    1.8053510010
14   

C       -1.7473088253   -0.3422132796    0.0959696672
C        0.3815438403   -0.6771151668    0.2972371969
C        1.7274310793   -1.3741258488    0.3559239051
C        0.1693303269    0.8719650175    0.2097125435
N        1.2416353157    1.8802366752   -2.0165358935
N       -1.2959728689    0.8888815325    0.1059003416
N       -0.7629911240   -1.3019472659    0.2073965303
N        0.7657308911    1.4266644450   -1.0116492242
N        2.6324487356   -0.8119915624    1.2206433041
O        2.0793974087   -2.2681608103   -0.3881327377
H       -2.8042905566   -0.5852304091    0.0139849396
H        0.5283142707    1.3879310390    1.1083139641
H        3.5268358277   -1.2994060005    1.2328650027
H        2.3431928318   -0.2953192619    2.0430437653
14   

C       -1.6973093578   -0.3432887138    0.1734522081
C        0.4404894801   -0.6331122577    0.2944091480
C        1.8085438749   -1.2822926151    0.3324212919
C        0.2002034656    0.9080628477    0.1638755492
N        1.1845054793    1.8325363893   -2.1377323382
N       -1.2685905000    0.8950478895    0.1191695140
N       -0.6926071828   -1.2834667019    0.2834321560
N        0.7458913155    1.4191458741   -1.0992938163
N        2.6231474973   -0.8926953201    1.3556022831
O        2.2817453703   -1.9034776628   -0.5991500536
H       -2.7523779367   -0.6056432319    0.1420944036
H        0.5903919410    1.4592902762    1.0281870412
H        3.5473382771   -1.3190089269    1.3262759155
H        2.2487993709   -0.5803115498    2.2449157341
14   

C       -1.6792619668   -0.3261300556    0.2997724932
C        0.4597158670   -0.5986504840    0.3087769703
C        1.8439117054   -1.2027690333    0.3335417871
C        0.2068037792    0.9306732103    0.1116478431
N        1.0999929405    1.7223572617   -2.2745168149
N       -1.2627908087    0.9077110841    0.1413741492
N       -0.6637878091   -1.2551619497    0.4197705697
N        0.6985600052    1.3712771172   -1.1990729917
N        2.5802614216   -1.0076679452    1.4574601454
O        2.4277073764   -1.5081809573   -0.6889111319
H       -2.7330006572   -0.5926393536    0.3395416306
H        0.6380235073    1.5243235699    0.9272661892
H        3.5334922288   -1.3594815476    1.4000295518
H        2.1394545172   -0.8986437690    2.3649303702
14   

C       -1.6501914908   -0.3072775383    0.4359442735
C        0.4856122177   -0.5627934452    0.3410906135
C        1.8849345913   -1.1207718136    0.3602427515
C        0.2110497949    0.9472073669    0.0661652440
N        1.0081543355    1.6141309805   -2.3906160396
N       -1.2557217505    0.9142160699    0.1652656830
N       -0.6195197369   -1.2178290958    0.5750804229
N        0.6462277675    1.3197510397   -1.2848810793
N        2.5459333391   -1.1279410189    1.5393450526
O        2.5488022957   -1.1764243014   -0.6584432875
H       -2.6980001196   -0.5773984161    0.5459209636
H        0.6725174036    1.5874485944    0.8284280534
H        3.5174806822   -1.4246172499    1.4855137417
H        2.0473292470   -1.1800925696    2.4218967934
14   

C       -1.6190801962   -0.2698720309    0.5164455152
C        0.5117357388   -0.5169950385    0.3501013812
C        1.9224868327   -1.0388321313    0.3794549617
C        0.2160623447    0.9676361074   -0.0085262956
N        0.9273015132    1.5110964324   -2.5211122807
N       -1.2462810392    0.9313790689    0.1444107835
N       -0.5748959104   -1.1609154544    0.6823440315
N        0.6015056695    1.2708178493   -1.3915881127
N        2.4964020544   -1.2534288673    1.5800398381
O        2.6552762813   -0.9070142399   -0.5841424860
H       -2.6597235887   -0.5382196765    0.6838153802
H        0.6979435085    1.6540556522    0.6991301405
H        3.4777137823   -1.5191295128    1.5573842154
H        1.9349092463   -1.4329163404    2.4065270569
14   

C       -1.5892527973   -0.2581438033    0.5702222062
C        0.5419548465   -0.4705212327    0.3761538444
C        1.9677113205   -0.9442189985    0.4209996901
C        0.2114892658    0.9814541624   -0.0582800305
N        0.8657916735    1.4235399888   -2.6058323154
N       -1.2472848626    0.9261974678    0.1228480088
N       -0.5238614391   -1.1175148226    0.7666976004
N        0.5643586133    1.2264893423   -1.4614730539
N        2.4545427461   -1.3685678446    1.6010429526
O        2.7567409187   -0.6483278972   -0.4584829226
H       -2.6211282003   -0.5359838511    0.7727365273
H        0.6918689530    1.7130107704    0.6039064276
H        3.4423588561   -1.6081441826    1.6195938344
H        1.8351143552   -1.6641092605    2.3493059847
14   

C       -1.7185990463   -0.3035614096    0.1116194557
C        0.3696438190   -0.7438078203   -0.1461933379
C        1.7067045497   -1.3940819814   -0.3581411197
C        0.2963067926    0.7348939343    0.3039455367
N        1.2683866138    2.3992372195   -1.5395594820
N       -1.1666784876    0.8474647762    0.4115196417
N       -0.8121582034   -1.2992306613   -0.2036971425
N        0.8240480699    1.6527839913   -0.7123214599
N        1.8863852030   -2.6263303012    0.1450787747
O        2.6768800125   -0.7536069053   -0.7222138621
H       -2.7949671285   -0.4597695150    0.1160990106
H        0.8035244542    0.8797657131    1.2664858622
H        2.8151370403   -3.0282427796    0.0501845161
H        1.0973112240   -3.1955500757    0.4360647482
14   

C       -1.7060138778   -0.2981544391    0.1122682730
C        0.3901938733   -0.7301349238   -0.0835396648
C        1.7393819386   -1.3651612835   -0.2542185729
C        0.2961868070    0.7704192003    0.2705846787
N        1.2759884900    2.3383134898   -1.6517445292
N       -1.1693149011    0.8739471387    0.3516888681
N       -0.7855010854   -1.2999823199   -0.1358347460
N        0.8281782849    1.6337059631   -0.7904727562
N        1.8506531664   -2.6666299661    0.0501410765
O        2.7390575652   -0.7063096995   -0.4794507357
H       -2.7807442581   -0.4653461044    0.1132240520
H        0.7886844868    0.9785940236    1.2293118262
H        2.7752295543   -3.0822422473   -0.0224727713
H        1.0297377079   -3.2368145734    0.2308180147
14   

C       -1.7037635024   -0.2952737570    0.1268218420
C        0.3984774884   -0.7219934193   -0.0024243345
C        1.7559785486   -1.3451779884   -0.1433545785
C        0.2885924185    0.7959980554    0.2512724117
N        1.2893414474    2.2532927058   -1.7458852262
N       -1.1787427114    0.8931580713    0.3030099792
N       -0.7726532170   -1.3022579919   -0.0512122707
N        0.8323948905    1.5969622070   -0.8519290256
N        1.8288888149   -2.6803349572   -0.0529481647
O        2.7696840158   -0.6783200427   -0.2522336405
H       -2.7771965437   -0.4705822754    0.1234112261
H        0.7638807044    1.0675011733    1.2029658517
H        2.7501060164   -3.1036688621   -0.1225564233
H        0.9913970765   -3.2483653514    0.0356631565
14   

C       -1.7056256418   -0.3041926435    0.1204195239
C        0.4025670370   -0.7196837734    0.0677136265
C        1.7671851627   -1.3332383370   -0.0468988937
C        0.2749303119    0.8107605644    0.2196947955
N        1.3111630901    2.1516879090   -1.8399228216
N       -1.1938671532    0.8975305565    0.2342298935
N       -0.7631504811   -1.3111635293    0.0172265228
N        0.8387430995    1.5463629402   -0.9184386872
N        1.8233543802   -2.6665452237   -0.1770542315
O        2.7855480284   -0.6647881588   -0.0503431155
H       -2.7773461485   -0.4892966193    0.1078178618
H        0.7263746334    1.1454959095    1.1629525702
H        2.7434780732   -3.0913052537   -0.2519771453
H        0.9787542986   -3.2310623968   -0.1715172563
