18   
Generated by ForceBalance from scan.xyz: Frame 1 of 24
C        1.0213539547   -0.6378967586    2.7719001733
C       -1.6033875189    3.1842700820   -1.8641213032
C        1.2472475826   -0.4274411818    0.3617772960
C        1.7478009700    0.4589836448   -0.7770112958
N        1.5448448368    0.1584455423    1.6630977878
S       -1.0069536039    1.5332294863   -1.3647617284
S        0.9818439383    2.1246335421   -0.8325514277
H        1.5446050455   -1.6000787074    2.8121733106
H        1.2118187961   -0.1173182287    3.7153616338
H       -0.0612360873   -0.8460000325    2.7011762811
H       -2.6431655065    3.0499276683   -2.1737477930
H       -1.0218866402    3.5743390060   -2.7028066860
H       -1.5704107376    3.8839047041   -1.0256156923
H        1.7685078089   -1.3913109936    0.2879834522
H        0.1713759400   -0.6392348885    0.2196506780
H        2.8152976827    0.6642104659   -0.6484599094
H        1.5968659839   -0.0253464829   -1.7458228217
H        1.1327384688    1.0900417379    1.6915195670
18   
Generated by ForceBalance from scan.xyz: Frame 2 of 24
C        1.0948586985   -0.7304591136    2.7901293314
C       -1.5891954045    3.1994542339   -1.9901050063
C        1.2229483991   -0.4056050634    0.3854319418
C        1.6791953469    0.5314172126   -0.7308280452
N        1.5754618114    0.1170666262    1.6999901932
S       -1.0978619050    1.6500387102   -1.1565874126
S        0.9097169068    2.1965487229   -0.6760449063
H        1.6153558358   -1.6945802421    2.7625246862
H        1.3261184722   -0.2561687118    3.7487332235
H        0.0094027397   -0.9327473355    2.7545477663
H       -2.6295500204    3.0598642788   -2.2968812695
H       -0.9691026791    3.3855136291   -2.8699146495
H       -1.5340540710    4.0478890045   -1.3046176297
H        1.7365118624   -1.3664427756    0.2463012118
H        0.1412698751   -0.6091542823    0.2758184826
H        2.7514344222    0.7310590574   -0.6349643666
H        1.4860461546    0.0920781950   -1.7132062776
H        1.1695920485    1.0474093814    1.7905245355
18   
Generated by ForceBalance from scan.xyz: Frame 3 of 24
C        1.1612304751   -0.8166192364    2.7947322823
C       -1.5625522528    3.1819994734   -2.0954113616
C        1.1886581688   -0.3729351359    0.4056471806
C        1.6060613392    0.6139596116   -0.6812347409
N        1.6045604450    0.0797499161    1.7281094260
S       -1.1783960826    1.7993516629   -0.9612862003
S        0.8415843309    2.2770511869   -0.5146406242
H        1.6676842231   -1.7835350916    2.6958404624
H        1.4401198671   -0.3938943605    3.7647209783
H        0.0727650602   -1.0057033386    2.7972623728
H       -2.6064704736    3.0465306271   -2.3932946254
H       -0.9215814362    3.1556824693   -2.9793550889
H       -1.4616527512    4.1424709740   -1.5864722597
H        1.6845773415   -1.3305751850    0.1972232572
H        0.1010021725   -0.5602215021    0.3323198857
H        2.6821907121    0.8066735241   -0.6168814995
H        1.3724235446    0.2227631437   -1.6748268637
H        1.2143945069    1.0082476692    1.8833594483
18   
Generated by ForceBalance from scan.xyz: Frame 4 of 24
C        1.2070340994   -0.8874175680    2.7779581440
C       -1.5257160989    3.1267866746   -2.1626510254
C        1.1484477337   -0.3252090962    0.4143897826
C        1.5412348177    0.7066432381   -0.6380699794
N        1.6222970558    0.0557581052    1.7406786445
S       -1.2343945400    1.9789376994   -0.7654925995
S        0.7994194282    2.3698023046   -0.3661358041
H        1.6949569949   -1.8545112054    2.6110747527
H        1.5293406756   -0.5178564064    3.7561847024
H        0.1168206859   -1.0626742275    2.8138077002
H       -2.5792780678    3.0115397082   -2.4352135137
H       -0.8962713289    2.8744467965   -3.0187531262
H       -1.3474468506    4.1591804786   -1.8572203906
H        1.6197038027   -1.2792015071    0.1418089583
H        0.0558855892   -0.4905507409    0.3730518459
H        2.6212417034    0.8856706065   -0.6020362114
H        1.2701449232    0.3649281693   -1.6402435857
H        1.2512786148    0.9796534207    1.9577272110
18   
Generated by ForceBalance from scan.xyz: Frame 5 of 24
C        1.2282392748   -0.9441408761    2.7414008876
C       -1.4762512418    3.0240588083   -2.1883370336
C        1.1032719937   -0.2632795542    0.4115717193
C        1.4928847990    0.8063295855   -0.6026836700
N        1.6276829505    0.0427043246    1.7389385835
S       -1.2520051960    2.1772528710   -0.5779931814
S        0.7960092793    2.4737795842   -0.2361677421
H        1.6930788611   -1.9095462061    2.5110033073
H        1.5880823231   -0.6294322021    3.7257242212
H        0.1367560800   -1.1030857552    2.8041010171
H       -2.5416024064    2.9493490914   -2.4277924466
H       -0.8923069042    2.5397950182   -2.9740353149
H       -1.1983500984    4.0763195203   -2.1095105895
H        1.5396775980   -1.2156040627    0.0813729443
H        0.0060576161   -0.3962752442    0.3965281220
H        2.5772556168    0.9606505265   -0.5880627952
H        1.1899013220    0.5165741735   -1.6121042706
H        1.2808035851    0.9603183462    2.0143265700
18   
Generated by ForceBalance from scan.xyz: Frame 6 of 24
C        1.2195457011   -0.9838277647    2.6852738032
C       -1.4166244771    2.8832021887   -2.1627093566
C        1.0608127680   -0.1897880557    0.3933055929
C        1.4620860572    0.9141413187   -0.5781699582
N        1.6268799085    0.0361424028    1.7198508145
S       -1.2319973682    2.3839025115   -0.4082348349
S        0.8292444895    2.5861392763   -0.1210327708
H        1.6478008577   -1.9512670341    2.3991721573
H        1.6122720568   -0.7269016418    3.6737990562
H        0.1253328260   -1.1117495468    2.7676518980
H       -2.4877397074    2.8450035099   -2.3841234006
H       -0.8883264453    2.1941482966   -2.8253835953
H       -1.0508574987    3.9005962061   -2.3116229077
H        1.4573719792   -1.1388381598    0.0080778022
H       -0.0401046738   -0.2848532856    0.4002925443
H        2.5507631641    1.0342150302   -0.5852190616
H        1.1287417272    0.6814844860   -1.5929611180
H        1.3165177462    0.9499533563    2.0464350566
18   
Generated by ForceBalance from scan.xyz: Frame 7 of 24
C        1.1425801450   -0.9947535287    2.5936380160
C       -1.3638664721    2.6874615849   -2.0447145063
C        1.0436649725   -0.0986320098    0.3368199275
C        1.5019286667    1.0265908808   -0.5833764884
N        1.6089543816    0.0430903381    1.6750655014
S       -1.1224753349    2.6035689643   -0.2305204499
S        0.9602870136    2.7108820435   -0.0604050889
H        1.5260006480   -1.9694165193    2.2707634211
H        1.5373744556   -0.7986847717    3.5951876485
H        0.0426871846   -1.0716543929    2.6615945718
H       -2.4450706842    2.6962199776   -2.2128789664
H       -0.9360505165    1.8121138141   -2.5383836079
H       -0.9235330727    3.6003026205   -2.4505866559
H        1.3986827203   -1.0471509578   -0.0880448026
H       -0.0604171224   -0.1419418293    0.3352294173
H        2.5950259414    1.0943261930   -0.5860963682
H        1.1642544994    0.8533555452   -1.6085942555
H        1.3423041868    0.9570341414    2.0376791034
18   
Generated by ForceBalance from scan.xyz: Frame 8 of 24
C        1.0138655922   -0.9757266151    2.4854081059
C       -1.3240771243    2.4560328239   -1.8604794065
C        1.0347133827    0.0025093256    0.2612826466
C        1.5727504143    1.1390683994   -0.6004156756
N        1.5620218745    0.0675882380    1.6198058545
S       -0.9896311483    2.8026244651   -0.0956325817
S        1.1117638822    2.8300445175   -0.0308042716
H        1.3572791657   -1.9573533369    2.1393984695
H        1.3858196551   -0.8350779462    3.5048259079
H       -0.0900571305   -0.9967228027    2.5170960925
H       -2.4085552804    2.5267122229   -1.9863658469
H       -1.0045812293    1.4471998214   -2.1304492979
H       -0.8346633995    3.1915559285   -2.5029837516
H        1.3579049122   -0.9447807199   -0.1905765348
H       -0.0701310923    0.0116196686    0.2282790096
H        2.6673935791    1.1523576320   -0.5703011333
H        1.2605849808    1.0213878803   -1.6410957565
H        1.3316548490    0.9814014617    2.0067206138
18   
Generated by ForceBalance from scan.xyz: Frame 9 of 24
C        0.9647753342   -0.9734846615    2.4135074775
C       -1.2726314042    2.3133455112   -1.7633433112
C        1.0079345870    0.0794076974    0.2242437703
C        1.5789304503    1.2298122164   -0.5992040084
N        1.5427775803    0.0804009732    1.5808218029
S       -0.9328764123    3.0029581030   -0.1062621283
S        1.1806561076    2.9100243346    0.0319913003
H        1.2739692906   -1.9534872015    2.0323748607
H        1.3459098296   -0.8799866634    3.4348855575
H       -0.1391082188   -0.9591439860    2.4509929951
H       -2.3468964125    2.4455844833   -1.9221576106
H       -1.0417084464    1.2473080516   -1.8061998430
H       -0.7262319418    2.8522172613   -2.5416801002
H        1.2989844029   -0.8612038804   -0.2623259244
H       -0.0967914740    0.1225692732    0.2008513211
H        2.6733699189    1.2069649995   -0.5688679526
H        1.2668023449    1.1599787545   -1.6434701313
H        1.3437315042    0.9879287435    1.9989637045
18   
Generated by ForceBalance from scan.xyz: Frame 10 of 24
C        0.9614175103   -1.0001669777    2.3823653846
C       -1.2483688451    2.2529112964   -1.7421307326
C        0.9808099741    0.1144488722    0.2227122633
C        1.5569373620    1.2818755178   -0.5758594550
N        1.5357785583    0.0716911907    1.5703470353
S       -0.9049604152    3.2146051165   -0.2301760297
S        1.1924294227    2.9440159874    0.1098519328
H        1.2559333615   -1.9718104261    1.9696385302
H        1.3591038473   -0.9380121333    3.3997646568
H       -0.1416404525   -0.9775342573    2.4377597653
H       -2.3045084299    2.4410537175   -1.9572730396
H       -1.1108189944    1.1822727963   -1.5837149618
H       -0.6503726409    2.5939412450   -2.5913925380
H        1.2529583814   -0.8163542722   -0.2932006083
H       -0.1235114570    0.1704927118    0.2192775765
H        2.6511402621    1.2441094677   -0.5515760199
H        1.2432278747    1.2443118038   -1.6207422861
H        1.3495178430    0.9689525780    2.0161965545
18   
Generated by ForceBalance from scan.xyz: Frame 11 of 24
C        0.9717474369   -1.0265540448    2.3624574178
C       -1.2507143428    2.2311215603   -1.7301875887
C        0.9798209158    0.1315685525    0.2258245808
C        1.5551690483    1.3145608867   -0.5519015114
N        1.5354775201    0.0671246631    1.5721927729
S       -0.8413580971    3.4117313120   -0.4026273844
S        1.1916957506    2.9610448503    0.1689120072
H        1.2760151207   -1.9867145957    1.9305071029
H        1.3682797077   -0.9806163853    3.3811211690
H       -0.1315856397   -1.0162114550    2.4178407492
H       -2.2810150613    2.4812942469   -2.0011484487
H       -1.2229499443    1.1959564562   -1.3873323816
H       -0.6193671285    2.3604025600   -2.6128156603
H        1.2554465875   -0.7897221168   -0.3054770966
H       -0.1244650869    0.1828008079    0.2243887807
H        2.6491302044    1.2748554452   -0.5249988512
H        1.2477055800    1.2945339503   -1.5988185624
H        1.3385710653    0.9533524401    2.0357579316
18   
Generated by ForceBalance from scan.xyz: Frame 12 of 24
C        0.6567379734   -0.0143307693    2.5375522338
C        4.0315894956    2.2936691333    0.4467617410
C        1.0729260211   -0.1250927649    0.1427925925
C        1.8334683127    0.4833547169   -1.0360432362
N        1.3379985329    0.5876765384    1.3900883408
S        2.8861286857    3.4590191455   -0.3654189704
S        1.3979795499    2.2385408917   -1.3693880584
H        1.0816934892   -1.0039198586    2.7385968210
H        0.8215009154    0.6059442258    3.4235754151
H       -0.4312270887   -0.1361004561    2.3952676618
H        4.6809168849    2.9399177444    1.0464104539
H        4.6506203851    1.7580287125   -0.2775705136
H        3.5001029079    1.5992761311    1.1012993171
H        1.4090273527   -1.1640365948    0.2635161175
H       -0.0038823124   -0.1634228013   -0.1015538712
H        2.9118041420    0.3920809556   -0.9013427496
H        1.5740081993   -0.0410130379   -1.9611488589
H        1.0071472139    1.5456975367    1.2758258976
18   
Generated by ForceBalance from scan.xyz: Frame 13 of 24
C        0.6476621804   -0.0040785788    2.5382803285
C        4.0298491542    2.3038414129    0.4415597036
C        1.0658261168   -0.1219912109    0.1447478221
C        1.8594814157    0.4510744066   -1.0285896670
N        1.3650173633    0.5672276045    1.3976231651
S        2.7483848810    3.4293757877   -0.2054437679
S        1.4721590790    2.1981568548   -1.4434972281
H        1.0135808738   -1.0188506459    2.7302672416
H        0.8469998066    0.5969673730    3.4304311836
H       -0.4454149962   -0.0606705558    2.3937771713
H        4.6461793729    2.9437155630    1.0812451810
H        4.6596666130    1.8986972203   -0.3551114756
H        3.5860912917    1.5079118541    1.0429584789
H        1.3481762735   -1.1775887384    0.2616160757
H       -0.0105037295   -0.1031934415   -0.1040061092
H        2.9338786971    0.3376550270   -0.8765734877
H        1.6015880261   -0.0835954189   -1.9488449063
H        1.0953879549    1.5452699352    1.2953257948
18   
Generated by ForceBalance from scan.xyz: Frame 14 of 24
C        0.6319714950   -0.0150007974    2.5484607150
C        4.0394756511    2.3485534191    0.4265105447
C        1.0351976219   -0.1119714190    0.1524305144
C        1.8819013434    0.4043305194   -1.0090595908
N        1.3928239953    0.5219888290    1.4197335877
S        2.6217269428    3.3709241398   -0.0991261659
S        1.5821366702    2.1437529506   -1.5176900820
H        0.9097484775   -1.0623262142    2.7123155787
H        0.8845938054    0.5428924529    3.4550737764
H       -0.4624965493    0.0260789168    2.4085986835
H        4.6172316077    2.9958865096    1.0935819426
H        4.6691220323    2.0645377308   -0.4211026204
H        3.6981506757    1.4720084223    0.9801447615
H        1.2233479384   -1.1902905475    0.2520260550
H       -0.0341857708    0.0054298799   -0.0989219459
H        2.9464270237    0.2557392582   -0.8184615503
H        1.6324265672   -0.1471931014   -1.9223315140
H        1.2130496618    1.5226162065    1.3456266511
18   
Generated by ForceBalance from scan.xyz: Frame 15 of 24
C        0.6028888108   -0.0484994531    2.5551983288
C        4.0647117636    2.4406056210    0.3970252838
C        0.9827613566   -0.0982095202    0.1544968077
C        1.8925959841    0.3430744980   -0.9900037101
N        1.4081261431    0.4521025287    1.4408629162
S        2.5109573853    3.2959234127   -0.0437854015
S        1.7114533365    2.0730316725   -1.5843054492
H        0.7726904333   -1.1245727174    2.6755898323
H        0.9170801719    0.4438942367    3.4804315096
H       -0.4827352147    0.1095726544    2.4294484055
H        4.5813546295    3.1064085287    1.0948927617
H        4.6931305546    2.2871416345   -0.4840174740
H        3.8501061162    1.4940053895    0.8964235996
H        1.0457448604   -1.1930735105    0.2259646063
H       -0.0648168904    0.1466449958   -0.0961679553
H        2.9398345260    0.1489211977   -0.7475582036
H        1.6521386062   -0.2268828607   -1.8949103239
H        1.3299207730    1.4674396192    1.4037756732
18   
Generated by ForceBalance from scan.xyz: Frame 16 of 24
C        0.5278579946   -0.0877889773    2.5585993335
C        4.1495136108    2.5842798065    0.3137562719
C        0.9215486325   -0.1035482758    0.1602058972
C        1.8897583677    0.2686543098   -0.9613090661
N        1.3994460634    0.3472603833    1.4672212173
S        2.4587450889    3.2070770180   -0.0028083529
S        1.8209162184    1.9932883923   -1.6001123790
H        0.5599732916   -1.1804690647    2.6400324770
H        0.8933452553    0.3269707529    3.5029558016
H       -0.5285677426    0.2097003354    2.4351428898
H        4.5878818796    3.2514155047    1.0620286527
H        4.7496133518    2.6150392833   -0.5983483081
H        4.1139761790    1.5707929886    0.7185436139
H        0.8574325259   -1.1999444558    0.1941716627
H       -0.0890355860    0.2678456215   -0.0869240640
H        2.9154290786    0.0295990816   -0.6690648817
H        1.6577581167   -0.3091352443   -1.8636118486
H        1.4473858642    1.3647245485    1.4627472163
18   
Generated by ForceBalance from scan.xyz: Frame 17 of 24
C        0.3817539288   -0.1499946015    2.5765419740
C        4.3090169091    2.7588727616    0.1987730261
C        0.8682658533   -0.1493992456    0.1962298385
C        1.8918809919    0.2026216405   -0.8823580061
N        1.3430263229    0.2043734439    1.5332875793
S        2.5114358090    3.1021229411    0.1334309116
S        1.8938677235    1.9395221834   -1.4962871795
H        0.2737933487   -1.2401024389    2.6206037382
H        0.7582889130    0.1859087491    3.5475867433
H       -0.6241528095    0.2812253645    2.4263899953
H        4.7190410661    3.3952639058    0.9889222363
H        4.7798101124    3.0089228591   -0.7538405400
H        4.4941003750    1.7127133969    0.4514420417
H        0.7207523881   -1.2381124900    0.1770905330
H       -0.1050680510    0.3077806411   -0.0581005918
H        2.8973241395   -0.0699657350   -0.5502486641
H        1.6787015348   -0.3572583096   -1.8004392857
H        1.5213438375    1.2063940175    1.5640062354
18   
Generated by ForceBalance from scan.xyz: Frame 18 of 24
C        0.4262946617    0.2033433638    2.3703870611
C       -1.2599512173    2.3047064691   -0.7663497392
C        1.1498270123   -0.2512814712    0.0930735293
C        2.0079867967    0.2362333336   -1.0678429691
N        1.3315453411    0.5684723399    1.2845904128
S       -0.2959404010    1.9131406832   -2.2775038714
S        1.6830529731    1.9709387498   -1.6055780789
H        0.6663847008   -0.8049816076    2.7259935923
H        0.5635974979    0.8928532635    3.2087871434
H       -0.6426939069    0.2098457162    2.0866318812
H       -2.3000037736    2.4113960296   -1.0903277581
H       -0.9233624713    3.2478584668   -0.3313093852
H       -1.1960884489    1.5044549895   -0.0274972646
H        1.4569615548   -1.2789095495    0.3294278170
H        0.0973864859   -0.3138472903   -0.2401219062
H        3.0652766747    0.2514968356   -0.7810765976
H        1.8875894247   -0.4194955257   -1.9333895882
H        1.1950078324    1.5459724018    1.0331552686
18   
Generated by ForceBalance from scan.xyz: Frame 19 of 24
C        0.4775357225    0.0893339995    2.4121561553
C       -1.3404205178    2.4758140581   -0.8798064893
C        1.1799502755   -0.2940218116    0.1159168622
C        2.0176485792    0.2415080059   -1.0388192300
N        1.3731393888    0.4916228218    1.3305034074
S       -0.3623394619    1.7485797757   -2.2489508934
S        1.5978909310    1.9677628200   -1.5387376844
H        0.7243687043   -0.9283585796    2.7349246078
H        0.6193523327    0.7532060568    3.2703868547
H       -0.5932416706    0.1005820800    2.1359844100
H       -2.3826005826    2.4758708917   -1.2139738324
H       -1.0261428267    3.5031459296   -0.6882830240
H       -1.2540711506    1.8797875618    0.0318986414
H        1.4967901146   -1.3261298759    0.3169303443
H        0.1227066476   -0.3470033092   -0.2034625609
H        3.0736032642    0.2992822120   -0.7537943905
H        1.9243720470   -0.4008820422   -1.9171139770
H        1.2180188085    1.4733419431    1.1066728873
18   
Generated by ForceBalance from scan.xyz: Frame 20 of 24
C        0.5993901782   -0.0618302684    2.5113420335
C       -1.4449996781    2.6727794897   -1.0843506774
C        1.2047872244   -0.3378307403    0.1722057213
C        1.9896066962    0.2547934708   -0.9920006759
N        1.4193604386    0.4200946546    1.4016101433
S       -0.4379519335    1.6473775743   -2.2182241462
S        1.4949767097    1.9728942229   -1.4423990377
H        0.9167181831   -1.0728814644    2.7905669502
H        0.7475842391    0.5842115562    3.3821069093
H       -0.4820957201   -0.1012530024    2.2861594079
H       -2.4749419585    2.6067301248   -1.4481728297
H       -1.1229068840    3.7149416101   -1.1169715343
H       -1.3969610217    2.2965927463   -0.0595586491
H        1.5590310402   -1.3647410059    0.3335257901
H        0.1391340744   -0.4107873943   -0.1117800104
H        3.0495070413    0.3473593183   -0.7327341143
H        1.9020403860   -0.3714435553   -1.8826263265
H        1.1963855129    1.3967786885    1.2155937967
18   
Generated by ForceBalance from scan.xyz: Frame 21 of 24
C        0.6983311374   -0.2044945090    2.5920198033
C       -1.5086453252    2.8411373639   -1.2666910960
C        1.2296258244   -0.3826648382    0.2256706220
C        1.9588055203    0.2714466657   -0.9425609388
N        1.4405948881    0.3588312671    1.4656461855
S       -0.5363826815    1.5526205001   -2.1247365570
S        1.3890893392    1.9767865420   -1.3408242693
H        1.0954473815   -1.1969072444    2.8337270973
H        0.8352684764    0.4303348646    3.4728620137
H       -0.3854359689   -0.3136932839    2.4057563680
H       -2.5371406188    2.7317361047   -1.6231290702
H       -1.1493342903    3.8386845926   -1.5264969896
H       -1.4812500277    2.7025805052   -0.1832472375
H        1.6389248872   -1.3935010667    0.3551590486
H        0.1621291011   -0.5006469671   -0.0322559100
H        3.0193910121    0.4032475587   -0.7049913380
H        1.8808894353   -0.3381416000   -1.8460858715
H        1.1434911179    1.3213536143    1.3125703027
18   
Generated by ForceBalance from scan.xyz: Frame 22 of 24
C        0.7864597564   -0.3243483157    2.6527005458
C       -1.5550873328    2.9768177540   -1.4324121924
C        1.2498008986   -0.4132433100    0.2675998082
C        1.9165393119    0.3036830278   -0.9025387267
N        1.4607378201    0.3071328174    1.5195179651
S       -0.6574571355    1.4850333204   -1.9825663349
S        1.2744072005    1.9945821348   -1.2326033923
H        1.2443637531   -1.2991772773    2.8554948725
H        0.9172182342    0.2948875504    3.5455016271
H       -0.2951055396   -0.4875867888    2.4967651387
H       -2.5866968595    2.8519561178   -1.7731143476
H       -1.1391321600    3.8767611321   -1.8905251135
H       -1.5389097092    3.0676120757   -0.3436929948
H        1.7114106319   -1.4055544593    0.3590093510
H        0.1822637303   -0.5761417710    0.0373407082
H        2.9776479798    0.4694140621   -0.6909202728
H        1.8380071802   -0.2838540936   -1.8211656618
H        1.1057424777    1.2547960861    1.4006419293
18   
Generated by ForceBalance from scan.xyz: Frame 23 of 24
C        0.8719797339   -0.4360517330    2.7039129041
C       -1.5814813480    3.0807033326   -1.5890078483
C        1.2616105153   -0.4314165817    0.3045388340
C        1.8668629956    0.3460241465   -0.8616184376
N        1.4861712044    0.2558523592    1.5718385312
S       -0.7778049766    1.4566970563   -1.8020900851
S        1.1664913623    2.0251628450   -1.1089501000
H        1.3709675300   -1.3992719007    2.8601100051
H        1.0092276151    0.1589545630    3.6120521702
H       -0.2074524761   -0.6335027903    2.5762389884
H       -2.6156895677    2.9521728910   -1.9191002852
H       -1.1030785319    3.8414936017   -2.2103213322
H       -1.5712145046    3.3899148207   -0.5410562405
H        1.7608986881   -1.4086174893    0.3482806948
H        0.1934198769   -0.6264446169    0.1031630403
H        2.9291627087    0.5347903985   -0.6778292647
H        1.7742449607   -0.2120538342   -1.7976420455
H        1.0932636321    1.1928746352    1.4948336255
18   
Generated by ForceBalance from scan.xyz: Frame 24 of 24
C        0.9441666894   -0.5356069133    2.7398683486
C       -1.6007910432    3.1464227820   -1.7241746775
C        1.2624805405   -0.4361550866    0.3330290040
C        1.8120019566    0.3961631434   -0.8238128104
N        1.5107858885    0.2094374773    1.6166620616
S       -0.9037596915    1.4669565124   -1.5768896262
S        1.0680150416    2.0653349994   -0.9850620277
H        1.4655216701   -1.4938892351    2.8451630832
H        1.0974358593    0.0283018094    3.6650696942
H       -0.1347413602   -0.7490735495    2.6364019577
H       -2.6410310128    3.0166909288   -2.0336338257
H       -1.0705153130    3.7273361261   -2.4825867617
H       -1.5747001299    3.6677815993   -0.7641818386
H        1.7837880382   -1.4027823656    0.3242807081
H        0.1927085466   -0.6509847399    0.1587318747
H        2.8754399664    0.6007389287   -0.6655230948
H        1.6973026990   -0.1304718120   -1.7755387085
H        1.0979443508    1.1405681135    1.5856669952
