23   

C       -4.8394628844   -6.8729031063   -2.0221366860
C        1.2348508856   -4.8206982411    3.1736283827
C       -3.3355728355   -4.8946904544   -1.4716640763
C        1.0756284553   -5.3672841429    1.9398866046
C       -3.7725624132   -6.5056226539    0.1796455482
C       -4.0130521832   -6.1339495764   -1.1173663788
C       -2.5758945630   -4.3762083332   -0.4440670977
C        0.6974654468   -3.5086859630    3.4434901636
C       -0.1412973490   -3.3644513422    1.3093598790
C       -1.8558197225   -3.1092718631   -0.4969829350
C       -0.8855133087   -2.6259284124    0.3053439557
N       -5.5075051842   -7.4768996202   -2.7604523131
N        0.0170619896   -2.8103363484    2.4725065316
N        0.3829000241   -4.6183162776    0.9895927819
O        0.8356009542   -3.0206742028    4.5517811925
S       -2.7151008407   -5.3748474349    1.0131872206
H        1.7545303684   -5.3327572172    3.9710161445
H       -3.4334574592   -4.4289958212   -2.4468831521
H        1.4778051516   -6.3536347490    1.7199686183
H       -4.1867483754   -7.3928059289    0.6451292844
H       -2.1559761838   -2.4460024779   -1.3020474667
H       -0.6958501080   -1.5600700117    0.2881073105
H        0.2103836601   -4.9594508097    0.0510890675
23   

C       -4.5232446441   -7.0160979886   -1.9709576156
C        1.3108048292   -4.8953555763    3.0975932919
C       -3.1738407547   -4.9317808196   -1.4118557403
C        0.9597431126   -5.4545084201    1.9101838435
C       -3.8241591140   -6.3829904385    0.3167772387
C       -3.8679102456   -6.1551332503   -1.0345469035
C       -2.6029852662   -4.2822133003   -0.3396613593
C        0.9392699625   -3.5287582828    3.3757786927
C       -0.1127081662   -3.3523450430    1.3402377559
C       -1.8925396744   -3.0039293597   -0.3854846690
C       -0.8861604128   -2.5637883956    0.3957690864
N       -5.0509826855   -7.7195750068   -2.7342931190
N        0.2286018451   -2.7885382183    2.4587356146
N        0.2423244804   -4.6628967849    1.0147571045
O        1.2462569658   -3.0298515436    4.4446361217
S       -2.9386686825   -5.1312205836    1.1782966007
H        1.8637516348   -5.4374447167    3.8515440880
H       -3.1236353708   -4.5723800790   -2.4346207832
H        1.2341728511   -6.4823754243    1.6839276212
H       -4.2840480954   -7.2347042039    0.8052278063
H       -2.2062926335   -2.3249311310   -1.1721008806
H       -0.6711718315   -1.5024832658    0.3998800784
H       -0.0758317778   -5.0107501211    0.1173913743
23   

C       -4.2291270819   -7.1186744064   -2.0247285028
C        1.2508860773   -5.1086994600    3.0574001168
C       -3.0406647212   -4.9613266818   -1.3832767003
C        0.7229877432   -5.6367270613    1.9225538482
C       -3.9511223388   -6.3217511019    0.3016878158
C       -3.7645940461   -6.1800917494   -1.0496169539
C       -2.6858893365   -4.2274822960   -0.2751960064
C        1.0480362814   -3.7100707172    3.3498151818
C       -0.1839211444   -3.4383883218    1.4278443439
C       -1.9832621180   -2.9375394695   -0.2452337877
C       -0.9595047789   -2.5737040771    0.5508525503
N       -4.6005863660   -7.8855415192   -2.8183480251
N        0.3246934283   -2.9068395901    2.4977936032
N       -0.0006857113   -4.7816733802    1.0933251196
O        1.5136426816   -3.2378275703    4.3725002776
S       -3.2548499846   -4.9909470247    1.2172863182
H        1.8233272329   -5.6992505188    3.7585142085
H       -2.8142484614   -4.6664087715   -2.4030204404
H        0.8676113045   -6.6884292671    1.6858341235
H       -4.4714047519   -7.1555529082    0.7597316369
H       -2.2992553233   -2.2078129349   -0.9841433485
H       -0.7110782268   -1.5211953869    0.6094773815
H       -0.4475489570   -5.1010640614    0.2409208090
23   

C       -3.9344633335   -7.2300071453   -2.0035025520
C        1.2297022303   -5.2087768734    2.9804309179
C       -2.8995899590   -5.0004519707   -1.3428390895
C        0.5500307891   -5.7241727057    1.9234014655
C       -4.0444065598   -6.2645721743    0.2727692968
C       -3.6475457539   -6.2124781208   -1.0392038982
C       -2.7462589441   -4.1799471092   -0.2514413885
C        1.1647915693   -3.7909602972    3.2414191256
C       -0.2256623709   -3.4730852046    1.4371013310
C       -2.0581094473   -2.8783394278   -0.1748922471
C       -1.0065030573   -2.5665569438    0.6048532534
N       -4.1607088136   -8.0612928635   -2.7867698487
N        0.4260180250   -2.9558272434    2.4343135744
N       -0.1858491312   -4.8370839845    1.1401739348
O        1.7655380240   -3.3290613766    4.1961553467
S       -3.5257328707   -4.8535530383    1.1865033769
H        1.8238178421   -5.8234851755    3.6415758347
H       -2.5106894368   -4.7733295282   -2.3306493334
H        0.5885349500   -6.7901569116    1.7106946123
H       -4.6170688137   -7.0787322231    0.7030454422
H       -2.4053705192   -2.1092387259   -0.8577640472
H       -0.7236574877   -1.5235789347    0.6780848847
H       -0.7386475177   -5.1426832522    0.3464363791
23   

C       -3.6713777967   -7.2722933699   -1.9718513908
C        1.2152023036   -5.2215161938    2.9359196708
C       -2.7765390183   -4.9948424775   -1.2708717584
C        0.3887697684   -5.7329074051    1.9871574415
C       -4.1778604043   -6.1834066621    0.1923944980
C       -3.5603141986   -6.1986330061   -1.0324453850
C       -2.8224693223   -4.1126633279   -0.2195892088
C        1.2741262358   -3.7927004603    3.1280825230
C       -0.2797056702   -3.4547830963    1.4649148371
C       -2.1545817800   -2.8016113928   -0.0838936948
C       -1.0762537401   -2.5252193828    0.6711194538
N       -3.7548667247   -8.1495316203   -2.7328158928
N        0.5099431472   -2.9432906484    2.3605930157
N       -0.3690838098   -4.8307140026    1.2431266747
O        2.0074224141   -3.3327758841    3.9863455475
S       -3.8318467030   -4.7161310255    1.0996264639
H        1.8375857297   -5.8473229721    3.5595566956
H       -2.2197173899   -4.8174433142   -2.1860943786
H        0.3325093632   -6.8072260838    1.8268139464
H       -4.8127522052   -6.9806755623    0.5630794275
H       -2.5578757810   -1.9904054426   -0.6820673381
H       -0.7698112386   -1.4889615683    0.7465500610
H       -1.0174619518   -5.1304213026    0.5225971820
23   

C       -3.4690804039   -7.3208099556   -1.9296783585
C        1.2386067930   -5.2509018024    2.8739202502
C       -2.6725533988   -5.0250371743   -1.1718906399
C        0.2733634594   -5.7558816714    2.0627325139
C       -4.3518978858   -6.1233375625    0.0484735515
C       -3.5135033297   -6.2055559241   -1.0342393449
C       -2.8957445726   -4.0950196936   -0.1864710050
C        1.4071241047   -3.8212457651    2.9683009870
C       -0.3105249053   -3.4698133850    1.4769561209
C       -2.2448063262   -2.7825088333    0.0095313721
C       -1.1350841041   -2.5282283785    0.7258710696
N       -3.4277131447   -8.2322415723   -2.6529239966
N        0.6096458856   -2.9655753621    2.2431055227
N       -0.5131405933   -4.8463503277    1.3581172280
O        2.2662967867   -3.3655125605    3.7032104566
S       -4.1514733946   -4.6191630868    0.9393723808
H        1.8930781720   -5.8823787915    3.4577066991
H       -1.9514390669   -4.8955506140   -1.9737006344
H        0.1331220536   -6.8310778161    1.9773218709
H       -5.0635175060   -6.8933835783    0.3257185109
H       -2.7240550908   -1.9340892247   -0.4691119042
H       -0.8132569049   -1.4960632992    0.7944637125
H       -1.2541112485   -5.1412497666    0.7309677085
23   

C       -3.7541432394   -7.7370756773   -0.6879832669
C        1.0828336231   -4.9745862258    3.3243594051
C       -2.5894590470   -5.4736829018   -0.6759292652
C       -0.0761946825   -5.4522396036    2.8013803223
C       -4.7056848852   -5.6862718769    0.3192851783
C       -3.7061566521   -6.3480373943   -0.3476276979
C       -2.7725535376   -4.1859538662   -0.2321593216
C        1.6355460442   -3.7441416673    2.8132156869
C       -0.1001497956   -3.5278091705    1.3167014191
C       -1.8844894846   -3.0202834267   -0.3997262297
C       -0.7333249351   -2.7612427496    0.2483604353
N       -3.7917936498   -8.8692729491   -0.9567037906
N        1.0077764933   -3.0534282042    1.8020810385
N       -0.6752782522   -4.7108958064    1.7842965838
O        2.6724100103   -3.3100249173    3.2848775326
S       -4.3291641429   -3.9867082176    0.5771796233
H        1.6143529656   -5.4835675938    4.1157777248
H       -1.7114736637   -5.8052393923   -1.2230273301
H       -0.5064732493   -6.3793817089    3.1732183169
H       -5.6280437785   -6.1523754586    0.6482668896
H       -2.2324278325   -2.2558223873   -1.0876128513
H       -0.1993963499   -1.8612941064   -0.0323300517
H       -1.5372031614   -5.0024415646    1.3356463896
23   

C       -3.6022715071   -7.7546170908   -0.5846929569
C        1.0917514838   -5.0331946556    3.2830979666
C       -2.5249155558   -5.4493830146   -0.5191816932
C       -0.1558268865   -5.4022802332    2.8924192371
C       -4.7898420161   -5.6795204327    0.0545226027
C       -3.6603863754   -6.3442753086   -0.3499479455
C       -2.8244022789   -4.1413877275   -0.2150606391
C        1.7081494287   -3.8760314467    2.6817496198
C       -0.1388326029   -3.5204709911    1.3548979178
C       -1.9631928950   -2.9534870915   -0.3040592833
C       -0.7985019569   -2.7169289226    0.3317428923
N       -3.5561946595   -8.9037452722   -0.7661612273
N        1.0520369051   -3.1474931567    1.7163338875
N       -0.7791701140   -4.6262857049    1.9163198764
O        2.8257368505   -3.5396282920    3.0336269852
S       -4.5174264333   -3.9520779148    0.2503212723
H        1.6482637175   -5.5762472195    4.0336615278
H       -1.5490184711   -5.7813893143   -0.8624964644
H       -0.6351293069   -6.2729637772    3.3342392208
H       -5.7461504795   -6.1595503115    0.2310658277
H       -2.3510089544   -2.1359546182   -0.9039828986
H       -0.2625567803   -1.8155063966    0.0597527112
H       -1.7043426546   -4.8417646276    1.5601736131
23   

C       -3.4684969835   -7.7665240824   -0.4731862771
C        1.0847213822   -5.0784187233    3.2439363018
C       -2.4823082770   -5.4226054995   -0.3641021240
C       -0.2248308506   -5.3364447311    2.9908868934
C       -4.8080116308   -5.7024244961   -0.2112226200
C       -3.6060596953   -6.3475034245   -0.3508428253
C       -2.8655498282   -4.1085318843   -0.2097524275
C        1.7396907346   -3.9960052175    2.5509705285
C       -0.1905924124   -3.5003826746    1.4002756432
C       -2.0469325253   -2.8938293911   -0.2077348503
C       -0.8758102927   -2.6647782064    0.4223335443
N       -3.3605110807   -8.9223990387   -0.5622960215
N        1.0584588987   -3.2301491947    1.6330115333
N       -0.8711659056   -4.5251005400    2.0593149150
O        2.9133370488   -3.7590282451    2.7796404234
S       -4.6211819417   -3.9574529186   -0.0847912161
H        1.6631359049   -5.6566161918    3.9504364509
H       -1.4520026532   -5.7405501067   -0.4982776190
H       -0.7337429046   -6.1495583505    3.5036762118
H       -5.7677471808   -6.2065449719   -0.1843645268
H       -2.4663021599   -2.0462373868   -0.7410029630
H       -0.3449647549   -1.7567104568    0.1630231989
H       -1.8412047570   -4.6651016595    1.7976307502
23   

C       -3.3754949330   -7.7452522355   -0.3894290561
C        1.0739210957   -5.1360316485    3.2276500097
C       -2.4412403317   -5.3836753447   -0.2239680427
C       -0.2722814589   -5.2706963286    3.1038062407
C       -4.7520938482   -5.6922699887   -0.4968817840
C       -3.5419373169   -6.3241514598   -0.3731574640
C       -2.8520739020   -4.0671543493   -0.2180395087
C        1.7600106794   -4.1326929033    2.4505247407
C       -0.2129363986   -3.4797981729    1.4642529478
C       -2.0786683971   -2.8324699897   -0.1094899704
C       -0.9083155720   -2.6098224394    0.5268110390
N       -3.2465257651   -8.9024672923   -0.3920392852
N        1.0713369777   -3.3232450145    1.5764825520
N       -0.9243908645   -4.4167542489    2.2151941140
O        2.9667592497   -4.0050007041    2.5654593732
S       -4.6018925467   -3.9408531124   -0.4314675719
H        1.6592853795   -5.7560445802    3.8917475328
H       -1.4040781411   -5.6977578348   -0.1480274771
H       -0.8046773502   -6.0225749532    3.6821007826
H       -5.6967097533   -6.2094654272   -0.6231879985
H       -2.5167249214   -1.9643355241   -0.5922606657
H       -0.3787242539   -1.6955899969    0.2880086595
H       -1.9227379242   -4.4705486334    2.0450756545
23   

C       -3.3553967971   -7.7594179456   -0.2890202607
C        1.1117646028   -5.1251600170    3.1654734792
C       -2.4615479542   -5.3848054074   -0.0935134659
C       -0.2457410383   -5.1815979283    3.1770453430
C       -4.6910504817   -5.7275290156   -0.7428429088
C       -3.5209090797   -6.3410052458   -0.3796925478
C       -2.8626177378   -4.0713657039   -0.2335140624
C        1.7748938030   -4.1826210741    2.2973618252
C       -0.2440061047   -3.4430820389    1.4822504578
C       -2.1511503952   -2.8123542944   -0.0390065839
C       -0.9804318030   -2.5647851851    0.5881849028
N       -3.2286670266   -8.9138716569   -0.2047172824
N        1.0514341541   -3.3575801472    1.4672179290
N       -0.9325683726   -4.3120237208    2.3304061698
O        2.9922495582   -4.1218163211    2.2947748006
S       -4.5518106659   -3.9746424285   -0.7472697137
H        1.7231946491   -5.7632899358    3.7876581625
H       -1.4560147575   -5.6950174362    0.1730788974
H       -0.7603815732   -5.8860532096    3.8267682147
H       -5.6006120376   -6.2585167837   -1.0003166479
H       -2.6229817253   -1.9418888245   -0.4842499997
H       -0.4780988886   -1.6328270813    0.3599573811
H       -1.9443863697   -4.3046034726    2.2662630413
23   

C       -4.2481219201   -7.2416951220    1.0215271747
C        1.1293874576   -4.9928989879    3.1393818972
C       -2.8716326808   -5.1600315869    0.5250979608
C        0.8214901893   -5.5729647774    1.9497478590
C       -4.6220679717   -5.7571373409   -0.9207134500
C       -3.9436609737   -6.0962184688    0.2198107920
C       -2.7604361569   -4.1385743421   -0.3980093149
C        0.8123589729   -3.6015512132    3.3537206953
C       -0.1227089267   -3.4462115842    1.2598904329
C       -1.8372076573   -3.0165727477   -0.5262728872
C       -0.7948012423   -2.6493256930    0.2501564303
N       -4.4903656014   -8.1817741197    1.6646977335
N        0.1814737649   -2.8632327236    2.3790634136
N        0.1987460649   -4.7773202645    0.9882909955
O        1.1028528470   -3.0758031081    4.4142775158
S       -3.9857421964   -4.2969294496   -1.6640968357
H        1.6102507102   -5.5356032766    3.9409337845
H       -2.2606158128   -5.2635909247    1.4145569788
H        1.0572980438   -6.6200167310    1.7726159892
H       -5.4568094547   -6.3209753188   -1.3215089090
H       -2.0579171790   -2.3306800227   -1.3382551976
H       -0.4642942461   -1.6196768735    0.1946897129
H       -0.0670041709   -5.1357211653    0.0781808353
23   

C       -4.3451961102   -7.2069749894    1.0164159683
C        1.1406476819   -5.1468561893    3.1485698990
C       -2.9887915372   -5.0920913774    0.6121712844
C        0.6661270576   -5.7007100584    2.0021694357
C       -4.4345972006   -5.8724015789   -1.0643179531
C       -3.9517407399   -6.1016089136    0.1973498629
C       -2.7571932226   -4.1329223614   -0.3532039301
C        0.9673825779   -3.7329111063    3.3775738518
C       -0.1509649889   -3.5001573863    1.3819530491
C       -1.8789630934   -2.9677805115   -0.3733213505
C       -0.8476421005   -2.6432061208    0.4367715884
N       -4.6590744865   -8.1146779821    1.6748119159
N        0.3100644196   -2.9447058799    2.4611391364
N        0.0233958878   -4.8556945503    1.0979744511
O        1.4033087067   -3.2319663743    4.3996723647
S       -3.7386920238   -4.4314934132   -1.7933911965
H        1.6498099191   -5.7275242856    3.9047106063
H       -2.5324903446   -5.0951216253    1.5971479276
H        0.7899161451   -6.7649949762    1.8144929283
H       -5.1636549747   -6.5039013765   -1.5595211406
H       -2.0998839495   -2.2368309334   -1.1449977324
H       -0.5279834758   -1.6084832656    0.4490197895
H       -0.3743152380   -5.1938633981    0.2288256669
23   

C       -4.4306107680   -7.1529816061    1.0102656445
C        1.1753471847   -5.1972988145    3.1117129833
C       -3.0935323135   -5.0179580772    0.6481615753
C        0.5606526405   -5.7427079790    2.0298595220
C       -4.2294627848   -5.9873967661   -1.1628206623
C       -3.9457199269   -6.0982150284    0.1736997678
C       -2.7394096104   -4.1317516525   -0.3474070289
C        1.1101046660   -3.7711426259    3.3194592568
C       -0.1702128266   -3.5063867560    1.4267838366
C       -1.9239268504   -2.9207490960   -0.2930981808
C       -0.8934295161   -2.6200102662    0.5264911410
N       -4.8184795519   -8.0195055602    1.6844170203
N        0.4215539023   -2.9609617380    2.4459925823
N       -0.1113780595   -4.8766614654    1.1682178027
O        1.6672236421   -3.2786036089    4.2852651020
S       -3.4718336815   -4.5776076936   -1.8927552041
H        1.7176509784   -5.7938187673    3.8315488613
H       -2.7918211837   -4.9183934207    1.6869966759
H        0.5998203514   -6.8162259570    1.8589278581
H       -4.8516325543   -6.6859647240   -1.7111380426
H       -2.1675381505   -2.1615623551   -1.0299201375
H       -0.5799823403   -1.5841339905    0.5714890451
H       -0.6178550134   -5.2066405339    0.3538929551
23   

C       -4.5608393071   -7.1285585391    0.9419733190
C        1.2274391383   -5.2078680087    3.0981445315
C       -3.2334060344   -4.9750175438    0.6618855109
C        0.4572345615   -5.7571442670    2.1231434615
C       -4.0118397035   -6.1046915929   -1.2429317746
C       -3.9624769681   -6.1156941083    0.1273687875
C       -2.7324729784   -4.1487683126   -0.3200279454
C        1.2731002833   -3.7730993341    3.2400858068
C       -0.1954970751   -3.5046123901    1.4888244590
C       -1.9857242357   -2.8952032933   -0.1915814842
C       -0.9538577988   -2.6053614509    0.6283814100
N       -5.0405806007   -7.9602260660    1.6006271262
N        0.5408661013   -2.9573812537    2.4084112485
N       -0.2570472400   -4.8861613429    1.3015224608
O        1.9674271119   -3.2772120920    4.1106613965
S       -3.1737489534   -4.7197852403   -1.9324689149
H        1.8139661969   -5.8073417187    3.7797866158
H       -3.1142141789   -4.7911695088    1.7261305289
H        0.4104365507   -6.8371709493    2.0029374379
H       -4.5123700692   -6.8603806762   -1.8382090792
H       -2.2653792029   -2.1109818819   -0.8883246998
H       -0.6477686834   -1.5679307518    0.6890374908
H       -0.8713069846   -5.2157614873    0.5645603276
23   

C       -4.6771599536   -7.1515609810    0.8450533303
C        1.2674453370   -5.1200237726    3.0655718386
C       -3.4030798713   -4.9573501548    0.6419725328
C        0.3686274490   -5.6886423290    2.2205268489
C       -3.7598088580   -6.2644219835   -1.2754273462
C       -3.9724995027   -6.1716982178    0.0763744904
C       -2.7580089119   -4.1824417872   -0.2941928628
C        1.3853246298   -3.6831316295    3.1107340943
C       -0.2590902488   -3.4488174966    1.5172140773
C       -2.1036579184   -2.8780463272   -0.1179319999
C       -1.0712571609   -2.5638417472    0.6896178942
N       -5.2432289215   -7.9551713810    1.4690116690
N        0.5965842060   -2.8841378609    2.3152598079
N       -0.4003690995   -4.8347139962    1.4312610762
O        2.1945813170   -3.1701350579    3.8643416480
S       -2.8594955220   -4.8913440411   -1.9084547872
H        1.9048785840   -5.7053813216    3.7128680588
H       -3.4918500775   -4.6885782664    1.6909497348
H        0.2654581260   -6.7704315544    2.1745354437
H       -4.1087423460   -7.0872654365   -1.8896722077
H       -2.4518924427   -2.0855240005   -0.7731493378
H       -0.7916154137   -1.5187936770    0.7483952503
H       -1.1026723048   -5.1781484033    0.7846995991
23   

C       -4.8021393003   -7.1376637826    0.7149326278
C        1.3288396150   -5.0774913264    3.0191093965
C       -3.5629973988   -4.9164579333    0.6134062142
C        0.3068651755   -5.6373142479    2.3211211679
C       -3.4962761199   -6.3591503466   -1.2381354695
C       -3.9791466146   -6.1854878797    0.0340394780
C       -2.7661642862   -4.1809535933   -0.2308747392
C        1.5272296353   -3.6499275501    2.9604913164
C       -0.2776610668   -3.4066440867    1.5525845493
C       -2.1811597213   -2.8446548457   -0.0123259082
C       -1.1349829466   -2.5214048686    0.7707805541
N       -5.4649516408   -7.9174079380    1.2700700588
N        0.6932047422   -2.8504145473    2.2130121989
N       -0.5037579124   -4.7841481423    1.5741466469
O        2.4475030961   -3.1455986808    3.5807816927
S       -2.5190279697   -4.9982618522   -1.7764215172
H        2.0068027702   -5.6631540420    3.6234954065
H       -3.8616961711   -4.5850257702    1.6038783767
H        0.1412022772   -6.7117415846    2.3551024024
H       -3.6956152518   -7.2326703275   -1.8492439860
H       -2.6127637123   -2.0380088419   -0.5968682902
H       -0.8657645425   -1.4735738375    0.8286423639
H       -1.2918152127   -5.1212758114    1.0314583760
23   

C       -4.9085782253   -7.1296469762    0.5620902683
C        1.3786483279   -5.0749463735    2.9588999921
C       -3.7145291590   -4.8816015735    0.5658232904
C        0.2453418427   -5.6025400235    2.4278831088
C       -3.2479527137   -6.4319898720   -1.1355258977
C       -3.9824644066   -6.1955500436   -0.0012485534
C       -2.7823596848   -4.1728936296   -0.1513889512
C        1.6570230313   -3.6707929378    2.7797388295
C       -0.2880264789   -3.3865360050    1.5822841977
C       -2.2549737479   -2.8167435636    0.1081130942
C       -1.1828331683   -2.4930368062    0.8531899286
N       -5.6556777828   -7.8935809585    1.0244204659
N        0.7878094731   -2.8602342991    2.0858086386
N       -0.5960977818   -4.7409029126    1.7265496447
O        2.6781223961   -3.1970240282    3.2475643303
S       -2.2063076802   -5.0771314699   -1.5547755515
H        2.0880908110   -5.6696184714    3.5165388086
H       -4.2063207632   -4.5043047665    1.4577114988
H        0.0178723966   -6.6585659772    2.5546803646
H       -3.3029027131   -7.3469751034   -1.7151994674
H       -2.7872334677   -1.9976628554   -0.3655979621
H       -0.9125607144   -1.4453196453    0.9068966410
H       -1.4618451121   -5.0549207910    1.3008814975
23   

C       -5.0120248093   -7.1111491213    0.3759834042
C        1.4319676000   -5.0596073626    2.9120288480
C       -3.8395716203   -4.8549817108    0.4941284008
C        0.2159074091   -5.5478507799    2.5549898365
C       -3.0577800956   -6.4835743820   -1.0072151862
C       -3.9952092486   -6.1976767376   -0.0473601290
C       -2.7893796781   -4.1723635583   -0.0686024057
C        1.7648967254   -3.6908168670    2.5998135978
C       -0.2875340133   -3.3645673954    1.6119707809
C       -2.3132658330   -2.8046981986    0.2249111366
C       -1.2142037863   -2.4712279298    0.9249885105
N       -5.8342073611   -7.8573018261    0.7264915285
N        0.8663880216   -2.8741192667    1.9515866358
N       -0.6536048843   -4.6824514248    1.8939969935
O        2.8598157673   -3.2541733393    2.9102399374
S       -1.9545255241   -5.1419860655   -1.2876929355
H        2.1685616079   -5.6603835701    3.4262427485
H       -4.4900150745   -4.4414516313    1.2590278750
H       -0.0533210109   -6.5765684461    2.7836628884
H       -3.0011734341   -7.4265301732   -1.5399095236
H       -2.9345981749   -1.9900013250   -0.1338760939
H       -0.9426582952   -1.4232153132    0.9618840236
H       -1.5759636849   -4.9705627132    1.5847595676
23   

C       -5.8349183661   -6.1548232185    0.4978925641
C        0.9829791343   -5.0683118542    3.3133050965
C       -4.0805507456   -4.3326850754    0.2144114976
C       -0.3533233108   -5.2120845893    3.1170335869
C       -3.5489202723   -6.5460573437   -0.3662343100
C       -4.5257907127   -5.7161105768    0.1220270132
C       -2.7808332314   -4.1613058387   -0.1969907950
C        1.7142576924   -4.1016194809    2.5301904160
C       -0.1992211734   -3.4882240411    1.4111192680
C       -1.9946726664   -2.9152065596   -0.2496634384
C       -0.8463385153   -2.6578933702    0.4031810305
N       -6.8977340661   -6.5124054950    0.8114021943
N        1.0766013609   -3.3242075340    1.5901491508
N       -0.9500310340   -4.4042702021    2.1509760351
O        2.9153965667   -3.9795189072    2.6978958791
S       -2.0576064311   -5.6857889857   -0.7279379502
H        1.5273982637   -5.6545183303    4.0398875507
H       -4.7152577670   -3.5259672954    0.5678953702
H       -0.9208752759   -5.9346831830    3.6990860753
H       -3.6767548707   -7.6120905686   -0.5184436646
H       -2.4159638832   -2.1045054186   -0.8359204735
H       -0.2978432191   -1.7654359640    0.1277898443
H       -1.9376395646   -4.4638392970    1.9271968441
23   

C       -5.8964301476   -6.1723332428    0.1927553298
C        1.1136292037   -5.0191099600    3.2644484197
C       -4.1349359169   -4.3387818612    0.0778744917
C       -0.2425760074   -5.0804890981    3.2164279213
C       -3.4977191257   -6.5737402043   -0.2651847057
C       -4.5473918165   -5.7335516220    0.0053011905
C       -2.7846445017   -4.1673659525   -0.1217583624
C        1.8155220259   -4.1324573099    2.3677830391
C       -0.1643951078   -3.4416855102    1.4253012680
C       -2.0392274859   -2.9018557203   -0.1500222404
C       -0.8660428283   -2.6210437912    0.4493075904
N       -6.9932201399   -6.5293219393    0.3524739656
N        1.1304871314   -3.3531210118    1.4635135601
N       -0.8888317385   -4.2713288742    2.2836595564
O        3.0328808266   -4.0835430972    2.4042826508
S       -1.9750366042   -5.7099007308   -0.4367131634
H        1.6956699946   -5.6133964191    3.9544139234
H       -4.8278982680   -3.5243793396    0.2640776384
H       -0.7876098496   -5.7419269958    3.8861055435
H       -3.5901931536   -7.6493115122   -0.3667707788
H       -2.5145243336   -2.0831405250   -0.6811901320
H       -0.3396588330   -1.7262065877    0.1408980953
H       -1.8960868522   -4.2751074596    2.1665460915
23   

C       -5.9315291968   -6.2210717368   -0.1145063541
C        1.2331373063   -4.8325896646    3.1947240021
C       -4.2153092511   -4.3427267752   -0.0492620077
C       -0.1191403021   -4.8258301695    3.3256537247
C       -3.4821753277   -6.5728342175   -0.1269343311
C       -4.5798369882   -5.7518059831   -0.0969539202
C       -2.8534702361   -4.1378474805   -0.0185599096
C        1.8505217265   -4.0293333236    2.1667996481
C       -0.2030504510   -3.2909164996    1.4465509745
C       -2.1759453275   -2.8410428053   -0.0274044152
C       -0.9928834490   -2.4976805937    0.5197457641
N       -7.0317751314   -6.6024727377   -0.1223920859
N        1.0881323351   -3.2640232759    1.3141560893
N       -0.8462097902   -4.0331043362    2.4390371952
O        3.0630318798   -4.0423467602    2.0432893572
S       -1.9717814314   -5.6724239793   -0.0928411848
H        1.8737317950   -5.4210427221    3.8361400297
H       -4.9484472618   -3.5425796250   -0.0464997264
H       -0.5999055222   -5.4235600787    4.0967553046
H       -3.5329806515   -7.6549910116   -0.1699716690
H       -2.7116909525   -2.0394293062   -0.5260367805
H       -0.5231042564   -1.5815710453    0.1841069652
H       -1.8587547357   -3.9888534197    2.4558005421
23   

C       -5.9311324844   -6.2364267931   -0.4629462372
C        1.3106622940   -4.8550458870    3.1871241362
C       -4.2299689834   -4.3649982741   -0.1762789131
C       -0.0107572036   -4.7276505406    3.4766609097
C       -3.5326312183   -6.5979638156    0.0238622148
C       -4.6013905497   -5.7725643038   -0.2095130386
C       -2.8970837661   -4.1595119234    0.1108217185
C        1.8569594940   -4.1631641957    2.0443210938
C       -0.2073591353   -3.2991060015    1.5247120697
C       -2.2385632864   -2.8584407586    0.1328959242
C       -1.0451988291   -2.5009424778    0.6484871620
N       -7.0145713215   -6.6133555613   -0.6636930984
N        1.0560904757   -3.3854184065    1.2397790534
N       -0.7792011152   -3.9266234991    2.6330780560
O        3.0405535532   -4.2843283327    1.7798380893
S       -2.0447743829   -5.7020998364    0.2977220953
H        1.9784553674   -5.4594724020    3.7844708824
H       -4.9377676841   -3.5654727853   -0.3692876006
H       -0.4367518399   -5.2401107212    4.3362682517
H       -3.5909696356   -7.6804302239    0.0364481685
H       -2.7889545764   -2.0570926561   -0.3498324484
H       -0.5990596131   -1.5758247487    0.3059352373
H       -1.7741214434   -3.7924719366    2.7709999118
23   

C       -5.0518961200   -6.7219290046   -1.8893335102
C        1.3108132156   -4.8218815781    3.2612044969
C       -3.3874579789   -4.8600859352   -1.3969714360
C        1.2959828984   -5.3365505827    2.0037489184
C       -3.6037628412   -6.6426000300    0.1142999109
C       -4.0478963586   -6.1156663782   -1.0695355037
C       -2.4381355974   -4.4809708586   -0.4702372340
C        0.6450078716   -3.5684389126    3.5232366473
C       -0.0383791857   -3.4234777063    1.3347032051
C       -1.7053181007   -3.2237986619   -0.5244066598
C       -0.7606210701   -2.7164126152    0.2939963317
N       -5.8655940016   -7.2179162323   -2.5588011761
N       -0.0187847555   -2.8981950119    2.5214974822
N        0.6191144951   -4.6145839974    1.0214673161
O        0.6610121193   -3.1055490748    4.6506110654
S       -2.3687317661   -5.6430313516    0.8661959897
H        1.8084412248   -5.3163522200    4.0833915710
H       -3.6357569776   -4.2808919365   -2.2802965095
H        1.7965373940   -6.2782177528    1.7899351704
H       -3.9709524954   -7.5672958882    0.5447591545
H       -2.0034015348   -2.5615037402   -1.3309909013
H       -0.5855232163   -1.6484440336    0.2645846090
H        0.5579229316   -4.9321908170    0.0612916830
