33

C     -5.16370   -0.51582   -4.75701
C     -6.90259   -2.06044   -5.36209
C     -4.68547   -1.45892   -3.84276
C     -6.27903   -0.82380   -5.52824
C     -5.38222   -2.68148   -3.72476
C     -2.38635   -1.28356   -6.27904
C     -0.92105   -1.41893   -5.92469
C     -4.89794   -5.15121   -3.16552
C     -3.65500   -4.38651   -2.76074
C     -1.88340   -0.81003   -4.93323
C     -5.01654   -3.72162   -2.69854
C     -5.65152   -3.46940   -1.33738
C     -3.42729   -1.14623   -3.05840
N     -6.46528   -2.95635   -4.47318
N     -2.21771   -1.59485   -3.76975
Br    -6.95143    0.43010   -6.81302
H     -4.65982    0.43913   -4.87136
H     -7.77491   -2.33081   -5.95360
H     -2.67912   -0.53582   -7.01030
H     -2.98603   -2.18738   -6.27869
H     -0.55362   -2.41505   -5.69753
H     -0.20572   -0.76239   -6.41093
H     -5.05863   -5.34718   -4.22078
H     -5.26745   -5.92788   -2.50141
H     -3.17984   -4.63900   -1.81541
H     -2.97097   -4.06122   -3.53707
H     -1.82050    0.27539   -4.79766
H     -5.36971   -4.25374   -0.62696
H     -6.74358   -3.46071   -1.42106
H     -5.33842   -2.50630   -0.91675
H     -3.40480   -0.06231   -2.85088
H     -3.44887   -1.66101   -2.09622
H     -1.43410   -1.58611   -3.11984
