39

C      1.76173    1.82920   -0.04608
C      2.86767    2.42584    2.46547
C      1.38360    1.04690    1.06605
C      2.68218    2.86264    0.08367
C      3.23513    3.16060    1.33835
C      1.94973    1.38164    2.31299
C      0.38252   -1.02174    0.01569
C      0.39505   -0.04173    0.93870
C      3.56156    5.68363    1.74218
C      3.21104    3.81834   -0.96565
C      1.42749   -1.24455   -1.05119
C     -0.75305   -2.01565   -0.05146
C      4.45729    4.43162   -0.28250
C      0.78941   -1.20713   -2.45484
C     -1.40951   -1.98553   -1.44787
C     -0.37397   -2.20402   -2.56016
C      4.16201    4.35449    1.24530
O      4.19176    6.71671    1.73033
O      2.27791    5.66315    2.18555
Cl     1.52466    0.44863    3.74231
H      1.30148    1.61948   -1.00741
H      3.28481    2.64091    3.44533
H     -0.39012   -0.04733    1.69331
H      3.45192    3.32227   -1.91048
H      2.46246    4.58993   -1.18821
H      2.25141   -0.53273   -0.97441
H      1.85786   -2.24494   -0.89661
H     -0.36067   -3.02689    0.12973
H     -1.49562   -1.81150    0.72631
H      5.33215    3.81028   -0.49603
H      4.68012    5.45039   -0.60380
H      0.41960   -0.19258   -2.65552
H      1.54887   -1.42561   -3.21446
H     -2.19534   -2.74757   -1.50469
H     -1.89744   -1.01226   -1.58860
H      0.02324   -3.22583   -2.48700
H     -0.85289   -2.12362   -3.54288
H      5.08484    4.22593    1.81784
H      1.93379    4.75120    2.13346
