35

C      1.34774   -0.47435    0.06625
C      0.19925   -1.46686   -0.17075
C      1.84398   -0.20047   -1.35778
C      0.73366   -2.35434   -1.31511
C      1.40833   -3.62678   -0.77066
C      4.51286   -7.85486   -2.25154
C      5.23777   -8.45986   -3.45983
C      2.10093   -4.40325   -1.88658
C      3.77728   -6.57756   -2.65827
C      5.99246   -9.72730   -3.11933
N      1.71408   -1.50672   -2.04447
O      1.87469   -6.84093   -0.80336
O      3.94145   -5.44672   -0.24515
F      6.61404  -10.23510   -4.21475
F      6.94918   -9.51494   -2.18107
F      5.17257  -10.69680   -2.64118
S      2.91477   -5.87741   -1.21269
H      1.03200    0.43630    0.58222
H      2.14050   -0.93999    0.66120
H     -0.06677   -2.04358    0.71967
H     -0.69607   -0.92803   -0.50079
H      1.21986    0.57552   -1.82657
H      2.88251    0.14613   -1.38026
H     -0.08048   -2.65685   -1.98650
H      0.65764   -4.25889   -0.28501
H      2.15270   -3.34921   -0.01801
H      3.79542   -8.57371   -1.84747
H      5.23167   -7.62289   -1.46142
H      4.53179   -8.71490   -4.25610
H      5.96752   -7.75788   -3.87475
H      1.39116   -4.76047   -2.63973
H      2.86988   -3.78397   -2.35563
H      4.46583   -5.80713   -3.01761
H      3.01377   -6.77173   -3.41771
H      1.43650   -1.37945   -3.01179
