14   
Generated by ForceBalance from scan.xyz: Frame 1 of 24
C       -1.7104559490   -0.8224702195   -2.3150184672
C       -1.5410922151    1.0634237697    0.6677546659
C        0.4034813491    1.2489373347    2.1737830521
N       -1.2803971402   -0.4454161656   -1.1679100752
N       -0.3037230336    0.6819791765    1.0354880978
N       -2.0630468328    0.3784925581   -0.4226416787
S       -2.4626495896    2.2435384763    1.4171501509
H       -1.0816325386   -1.4928314579   -2.8933739284
H       -2.6759153714   -0.5135764440   -2.7298183725
H        0.5367414370    2.3277112379    2.0504163832
H        1.3810143099    0.7667822621    2.2407015055
H       -0.1511931610    1.0785839710    3.1011701156
H        0.1351901658   -0.0368720638    0.4703296548
H       -2.9339416109    0.7558016964   -0.7956249169
14   
Generated by ForceBalance from scan.xyz: Frame 2 of 24
C       -1.6912289694   -0.7648177401   -2.3131733117
C       -1.5865235793    1.0193059445    0.6864694656
C        0.3844391687    1.2806294753    2.1419761171
N       -1.3422960798   -0.5430890633   -1.1009584636
N       -0.3531656917    0.6377281099    1.0650259218
N       -2.1491709187    0.2502757386   -0.3335047342
S       -2.4656424930    2.2777976810    1.3514138630
H       -1.0545535196   -1.4101004708   -2.9117995699
H       -2.6030853442   -0.3574181317   -2.7636649515
H        0.5278273129    2.3448629493    1.9329669874
H        1.3570436131    0.7914829373    2.2268204625
H       -0.1532019169    1.1895781271    3.0902876382
H        0.0676666144   -0.1231324393    0.5425063389
H       -2.9704859660    0.6853523465   -0.7560406780
14   
Generated by ForceBalance from scan.xyz: Frame 3 of 24
C       -1.6442252722   -0.6905621153   -2.2970038269
C       -1.6068126911    0.9744751592    0.6946444618
C        0.3976819290    1.2901578205    2.0970248064
N       -1.3895557982   -0.6435604607   -1.0437732369
N       -0.3733487618    0.5960540823    1.0765392152
N       -2.2075322837    0.1381404705   -0.2545992734
S       -2.4457469407    2.2953853496    1.2838401933
H       -1.0162406656   -1.3263327360   -2.9156689862
H       -2.4803221540   -0.1583088771   -2.7650990423
H        0.5587724091    2.3353259838    1.8169005269
H        1.3615243294    0.7865359738    2.1960660711
H       -0.1238607297    1.2720194957    3.0584129844
H        0.0221684258   -0.2092464920    0.6032482913
H       -2.9964260532    0.5990361429   -0.7121910662
14   
Generated by ForceBalance from scan.xyz: Frame 4 of 24
C       -1.5863965027   -0.6251708085   -2.2633680614
C       -1.6358434525    0.9340491850    0.6807756164
C        0.3968768179    1.3027673676    2.0318625645
N       -1.4502240627   -0.7513946733   -0.9982604800
N       -0.4037442072    0.5579404053    1.0714209518
N       -2.2717405041    0.0397295402   -0.1946263951
S       -2.4337824392    2.3131646173    1.1862433172
H       -0.9670266436   -1.2530380278   -2.8998604160
H       -2.3188695846    0.0427362975   -2.7321307596
H        0.5641799842    2.3261487899    1.6836889327
H        1.3566246796    0.7936382382    2.1419979615
H       -0.1042470382    1.3513561828    3.0031307575
H       -0.0346778896   -0.2933197472    0.6616748985
H       -3.0394228963    0.5129998316   -0.6759387693
14   
Generated by ForceBalance from scan.xyz: Frame 5 of 24
C       -1.4970720760   -0.5812344117   -2.2431489915
C       -1.6571149338    0.8881686024    0.6208327424
C        0.3997164558    1.2855559809    1.9287101553
N       -1.5121463549   -0.8691787154   -0.9984211751
N       -0.4289503946    0.5053384863    1.0214663202
N       -2.3269526151   -0.0481571602   -0.1834404930
S       -2.4090186648    2.3190738151    1.0479178728
H       -0.8911410902   -1.2061686039   -2.8967398752
H       -2.0930471363    0.2243576704   -2.6886610810
H        0.5440330251    2.2973186396    1.5401307322
H        1.3676111825    0.7879316834    2.0189325637
H       -0.0645904556    1.3633311355    2.9167372623
H       -0.0936903275   -0.3907499802    0.6852878187
H       -3.0794526756    0.4256316399   -0.6864616391
14   
Generated by ForceBalance from scan.xyz: Frame 6 of 24
C       -1.1905072349   -0.6975577135   -1.9928552609
C       -1.7847656080    0.9978365933    0.5725332654
C        0.3732939232    1.2482709685    1.7408877382
N       -1.9939731738   -0.8686279903   -1.0139142183
N       -0.4686025904    0.6932682471    0.6872420217
N       -2.4751809613    0.3658680194   -0.4648265738
S       -2.5851681147    2.1057653869    1.5400547477
H       -0.7792175564   -1.5921315960   -2.4594083011
H       -0.9098344688    0.2886192901   -2.3748755192
H        0.3536708600    2.3386996989    1.6966060057
H        1.3949043859    0.8964249014    1.5787561341
H        0.0291889853    0.9411308803    2.7344187992
H       -0.1453957676   -0.1535955769    0.2365242646
H       -3.4571323755    0.2737393250   -0.2228817217
14   
Generated by ForceBalance from scan.xyz: Frame 7 of 24
C       -1.1492210623   -0.6849309311   -1.9357638678
C       -1.8033745723    0.9862494321    0.5657880367
C        0.3729222505    1.2461914035    1.6971926037
N       -2.0959760464   -0.8397316610   -1.0882045306
N       -0.4827698810    0.6925403165    0.6532855697
N       -2.5251645442    0.3453415875   -0.4444790355
S       -2.5905190732    2.0815941850    1.5584067331
H       -0.8022070479   -1.5775994219   -2.4533904262
H       -0.6943081540    0.2815978099   -2.1712899934
H        0.3482101132    2.3367240536    1.6581920577
H        1.3932471782    0.8994436762    1.5169692212
H        0.0458218704    0.9329155450    2.6944277080
H       -0.1581625332   -0.1488951569    0.1931837105
H       -3.5022733273    0.2665788458   -0.1828806978
14   
Generated by ForceBalance from scan.xyz: Frame 8 of 24
C       -1.1213228668   -0.6802504611   -1.9065006655
C       -1.8106356957    0.9804536157    0.5651756360
C        0.3726290123    1.2573785228    1.6764537073
N       -2.1605341693   -0.7961994761   -1.1639624254
N       -0.4852110804    0.7009206386    0.6351246067
N       -2.5502318757    0.3133868322   -0.4127818095
S       -2.5948855031    2.0714889628    1.5645727776
H       -0.8520676606   -1.5504904304   -2.5012109875
H       -0.5255395537    0.2312013208   -2.0009112875
H        0.3346357230    2.3476070337    1.6434196426
H        1.3953402161    0.9238809484    1.4851486228
H        0.0576308361    0.9348935133    2.6747170236
H       -0.1627306695   -0.1479347642    0.1862790778
H       -3.5279051054    0.2503273280   -0.1527209532
14   
Generated by ForceBalance from scan.xyz: Frame 9 of 24
C       -1.0982957561   -0.6729285935   -1.9064449537
C       -1.8135774541    0.9709605190    0.5617336677
C        0.3695647970    1.2746055784    1.6644079189
N       -2.1937884245   -0.7513065601   -1.2405212296
N       -0.4839971272    0.7008386691    0.6282344152
N       -2.5571995175    0.2669244778   -0.3824344981
S       -2.5998969151    2.0758203189    1.5433268661
H       -0.8941214045   -1.4949989987   -2.5883403774
H       -0.3998556135    0.1654701659   -1.8714402867
H        0.3218260571    2.3638327859    1.6190491049
H        1.3950958104    0.9484878747    1.4754588998
H        0.0579998154    0.9605947036    2.6665956066
H       -0.1706028071   -0.1723411747    0.2204611285
H       -3.5427406197    0.2324633814   -0.1515103179
14   
Generated by ForceBalance from scan.xyz: Frame 10 of 24
C       -1.0894208334   -0.6639653512   -1.9168815307
C       -1.8194341947    0.9451658973    0.5665602911
C        0.3667137713    1.2894430611    1.6516548961
N       -2.2161992028   -0.7196081063   -1.3007626123
N       -0.4883161905    0.6769981763    0.6388806839
N       -2.5615409702    0.1962418138   -0.3408357989
S       -2.6062103831    2.0799951550    1.5114263091
H       -0.9348573917   -1.4170634558   -2.6856150853
H       -0.3204809844    0.0954422420   -1.7691617870
H        0.3181411701    2.3760939492    1.5650407129
H        1.3921914224    0.9572672598    1.4733845895
H        0.0568263336    1.0135616329    2.6655899057
H       -0.1840748068   -0.2206170769    0.2798888909
H       -3.5559996468    0.2039373914   -0.1516831312
14   
Generated by ForceBalance from scan.xyz: Frame 11 of 24
C       -1.0929274406   -0.6358374610   -1.9210406608
C       -1.8209013696    0.9134863934    0.5908631893
C        0.3730384471    1.2970497847    1.6489571306
N       -2.2361772009   -0.6839282466   -1.3354433806
N       -0.4908874827    0.6390538676    0.6730506006
N       -2.5635337132    0.1178658158   -0.2766828933
S       -2.6005433578    2.0901632646    1.4864546846
H       -0.9752370153   -1.3022384446   -2.7719425445
H       -0.2738827055    0.0398057153   -1.6738553847
H        0.3305885985    2.3781106745    1.5066943448
H        1.3956739469    0.9498319049    1.4838064077
H        0.0658033346    1.0756924579    2.6770199649
H       -0.1999129104   -0.2823678523    0.3674253662
H       -3.5635333281    0.1802974515   -0.1326011462
14   
Generated by ForceBalance from scan.xyz: Frame 12 of 24
C       -1.0927140553   -0.5959643445   -1.9332275595
C       -1.8209443917    0.8898545127    0.5985784365
C        0.3789432740    1.3113167618    1.6317896286
N       -2.2489587622   -0.6376389436   -1.3755138219
N       -0.4941593523    0.6043196577    0.6993236301
N       -2.5614860840    0.0424663855   -0.2277451123
S       -2.5911834390    2.1187319433    1.4249555117
H       -1.0037570573   -1.1636467925   -2.8563208385
H       -0.2346320917   -0.0139056920   -1.5975602006
H        0.3544162852    2.3812268921    1.4182500347
H        1.3961807926    0.9377591814    1.4934108326
H        0.0652456614    1.1633256720    2.6710300834
H       -0.2222472808   -0.3427867369    0.4620151040
H       -3.5620416258    0.1599723132   -0.1248814804
14   
Generated by ForceBalance from scan.xyz: Frame 13 of 24
C       -1.2763345055   -0.9780079819   -1.6736260447
C       -1.6398628693    1.2716772187    0.3391653776
C        0.1071309840    0.7928225542    2.0114478048
N       -1.8022309838    0.1648842506   -1.9373129223
N       -0.5205012330    0.5919576173    0.7084362432
N       -2.0563551356    1.1062475824   -0.9787024208
S       -2.4924910554    2.3040884433    1.3397574273
H       -1.1645452027   -1.6456410906   -2.5243381126
H       -0.9949319778   -1.3432075502   -0.6857714706
H        0.4444005109    1.8266954715    2.1439290025
H        0.9581405764    0.1117155619    2.0852599528
H       -0.6084985209    0.5644925002    2.8030236762
H        0.0917362461    0.2898273748   -0.0405810019
H       -2.7268198440    1.8002652341   -1.2844586477
14   
Generated by ForceBalance from scan.xyz: Frame 14 of 24
C       -1.2537351656   -0.9688973690   -1.6931258097
C       -1.6594859643    1.2563288526    0.3498057882
C        0.1147761788    0.8070232624    2.0006581398
N       -1.7465813440    0.1909370154   -1.9465333976
N       -0.5469685181    0.5683018073    0.7212103379
N       -2.1188540614    1.0525660472   -0.9472873573
S       -2.4728487195    2.3376457688    1.3340894865
H       -1.0289793001   -1.5852220367   -2.5600898664
H       -1.1002654693   -1.3915344333   -0.6993379549
H        0.4852315172    1.8349124896    2.0807187992
H        0.9471401931    0.1044985401    2.0864125162
H       -0.5894819368    0.6348746235    2.8161694913
H        0.0379974857    0.2105710009   -0.0251104329
H       -2.7355927731    1.7848973943   -1.2760892478
14   
Generated by ForceBalance from scan.xyz: Frame 15 of 24
C       -1.2513133606   -0.9540243784   -1.7039368852
C       -1.6774356428    1.2468560921    0.3650608499
C        0.1240152018    0.8200084934    1.9920117527
N       -1.6885674525    0.2298812252   -1.9424340857
N       -0.5674754075    0.5559794658    0.7336163687
N       -2.1776488383    1.0082475687   -0.9128265837
S       -2.4593751958    2.3611570129    1.3394676499
H       -0.9139290340   -1.5215257103   -2.5679871134
H       -1.2413479946   -1.4350200190   -0.7238823060
H        0.5102323311    1.8442082827    2.0356180913
H        0.9485726912    0.1085088975    2.0794900820
H       -0.5647582106    0.6803832634    2.8267862953
H       -0.0097938703    0.1504863816   -0.0090157367
H       -2.7459265416    1.7735589939   -1.2551142114
14   
Generated by ForceBalance from scan.xyz: Frame 16 of 24
C       -1.2656444845   -0.9462277756   -1.7142882118
C       -1.6818388664    1.2445171668    0.3763677166
C        0.1391732547    0.8324877042    1.9861565574
N       -1.6075207829    0.2708995019   -1.9295688985
N       -0.5669738906    0.5612445229    0.7380455591
N       -2.2130264268    0.9704087303   -0.8844109853
S       -2.4497759568    2.3724457765    1.3471354194
H       -0.8183423055   -1.4764499213   -2.5523054081
H       -1.4250890442   -1.4785784353   -0.7731180718
H        0.5326468189    1.8543872774    2.0146002710
H        0.9604492328    0.1169554779    2.0717263198
H       -0.5410492553    0.7062657867    2.8301256985
H       -0.0310477195    0.1200590851    0.0002772940
H       -2.7510754973    1.7527367203   -1.2389934638
14   
Generated by ForceBalance from scan.xyz: Frame 17 of 24
C       -1.2911622249   -0.9464914116   -1.7469549747
C       -1.6728927324    1.2403503636    0.3860255461
C        0.1617383145    0.8421640813    1.9857622729
N       -1.5029992394    0.3059125193   -1.9059466065
N       -0.5469081867    0.5730302049    0.7392188027
N       -2.2236653822    0.9302808309   -0.8601086004
S       -2.4435072466    2.3645842860    1.3591161401
H       -0.7455353451   -1.4569404671   -2.5387529788
H       -1.6386633838   -1.5181671456   -0.8814909867
H        0.5345834850    1.8713430081    2.0229601457
H        0.9984340976    0.1430971233    2.0565539104
H       -0.5087638596    0.6925370462    2.8339655868
H       -0.0226602164    0.1157184155    0.0036266881
H       -2.7468931892    1.7214689743   -1.2201548579
14   
Generated by ForceBalance from scan.xyz: Frame 18 of 24
C       -1.3360883362   -0.9665636349   -1.7977107486
C       -1.6652594547    1.2345430112    0.4059388365
C        0.1777802729    0.8797560428    2.0066520377
N       -1.3846905978    0.3092056195   -1.8544723268
N       -0.5243191763    0.5938385082    0.7607468925
N       -2.2104797202    0.8822330992   -0.8313235836
S       -2.4637047527    2.3451443339    1.3720256670
H       -0.7230433012   -1.4738326383   -2.5419944313
H       -1.8771814973   -1.5558865805   -1.0512736382
H        0.5331635867    1.9153472296    2.0395400655
H        1.0262701149    0.1955383153    2.0819950207
H       -0.4912405178    0.7230467196    2.8547431502
H        0.0061847879    0.1448669134    0.0247046388
H       -2.7379252530    1.6615906441   -1.2129812339
14   
Generated by ForceBalance from scan.xyz: Frame 19 of 24
C       -1.7194147251   -0.9982490868   -1.9270491799
C       -1.4854607473    1.2150562110    0.4042002572
C        0.2644433097    1.0169588328    2.1357715432
N       -1.0396342525    0.0436373377   -1.6359753128
N       -0.2402071672    0.8626756063    0.7792679923
N       -1.7434519024    1.0748364718   -0.9695389485
S       -2.6632681734    1.8254024910    1.4215873900
H       -1.2090218364   -1.8023481118   -2.4541426460
H       -2.7907795206   -1.1031296292   -1.7177296456
H        0.3158539507    2.0729935083    2.4188361576
H        1.2637270222    0.5786349355    2.1793651815
H       -0.3898538136    0.5056546167    2.8469509500
H        0.3757547762    0.5096200469    0.0551459903
H       -2.7543765775    1.0535037382   -1.1159986741
14   
Generated by ForceBalance from scan.xyz: Frame 20 of 24
C       -1.7614751577   -0.9656620655   -2.0138034204
C       -1.4754623024    1.2381473892    0.4698072195
C        0.2910748778    1.0931121763    2.1879578677
N       -1.0652937859   -0.0131865405   -1.5204970961
N       -0.2343812829    0.8789732895    0.8477013683
N       -1.7630362933    1.0147397397   -0.8859549227
S       -2.6242179642    1.9420407219    1.4592536797
H       -1.2328859410   -1.7632877794   -2.5308663364
H       -2.8571061530   -0.9937737787   -1.9827692266
H        0.3194277158    2.1596033522    2.4301110674
H        1.3027334420    0.6837733088    2.2260282793
H       -0.3340568880    0.5916096676    2.9324233333
H        0.3474562582    0.4375580618    0.1438857822
H       -2.7750399074    1.0185147931   -1.0300219110
14   
Generated by ForceBalance from scan.xyz: Frame 21 of 24
C       -1.7768999793   -0.9507593458   -2.1038213759
C       -1.4699268464    1.2283031095    0.5194422546
C        0.3282462970    1.1463662212    2.2058725412
N       -1.1027396205   -0.0986618501   -1.4277336115
N       -0.2303754077    0.8613731747    0.8926927271
N       -1.7980105749    0.9179192509   -0.8063071695
S       -2.5783100390    2.0305726479    1.4804740637
H       -1.2277305347   -1.7369482641   -2.6153281769
H       -2.8654318958   -0.9034707344   -2.2234835094
H        0.3761450231    2.2248029382    2.3826491082
H        1.3352310800    0.7258328895    2.2454412063
H       -0.2854628816    0.6993168037    2.9934924811
H        0.3165385046    0.3473967946    0.2102940032
H       -2.8076763062    0.9548244200   -0.9592407090
14   
Generated by ForceBalance from scan.xyz: Frame 22 of 24
C       -1.7705334508   -0.9344596464   -2.1848803912
C       -1.4722868171    1.1975542004    0.5631560267
C        0.3606349775    1.1831372440    2.2100539973
N       -1.1465512638   -0.1932117304   -1.3474105808
N       -0.2336470869    0.8230388361    0.9316231466
N       -1.8461515423    0.8018465620   -0.7219346753
S       -2.5354134115    2.0961591998    1.4910859199
H       -1.2021698885   -1.7080580204   -2.6934293521
H       -2.8320670637   -0.8125760331   -2.4274076873
H        0.4342557751    2.2697311344    2.3126326515
H        1.3597030239    0.7447294350    2.2557692596
H       -0.2429960464    0.8031968365    3.0395864913
H        0.2831885900    0.2506917246    0.2726145117
H       -2.8487375257    0.8871705640   -0.8945689083
14   
Generated by ForceBalance from scan.xyz: Frame 23 of 24
C       -1.7568215857   -0.9075883611   -2.2515080301
C       -1.4936251970    1.1706426394    0.5933021185
C        0.3763913497    1.2207930930    2.1998037065
N       -1.1987662274   -0.2796459193   -1.2834303563
N       -0.2545537430    0.7940988180    0.9600545197
N       -1.9128056983    0.6785082729   -0.6369104521
S       -2.5120908454    2.1677473809    1.4719391266
H       -1.1678376203   -1.6602805659   -2.7670622784
H       -2.7815086888   -0.7151369364   -2.5870851378
H        0.4744237490    2.3098006497    2.2314545713
H        1.3674016073    0.7649585752    2.2508963967
H       -0.2146354242    0.9071660356    3.0654027511
H        0.2313616825    0.1626530657    0.3323250028
H       -2.8957265700    0.8418278476   -0.8542562785
14   
Generated by ForceBalance from scan.xyz: Frame 24 of 24
C       -1.7347501316   -0.8705885381   -2.2879426127
C       -1.5113729839    1.1132037517    0.6439019386
C        0.3990605621    1.2313041834    2.1981999615
N       -1.2390510277   -0.3622457023   -1.2200767937
N       -0.2730466800    0.7307105467    1.0087395975
N       -1.9844765263    0.5253655286   -0.5186718576
S       -2.4785970053    2.2057791097    1.4664720773
H       -1.1226865136   -1.5802252723   -2.8362812071
H       -2.7322989691   -0.6260665305   -2.6679342181
H        0.5160307934    2.3179567331    2.1508430863
H        1.3833152509    0.7617013638    2.2550616124
H       -0.1725630480    0.9897861442    3.0991493315
H        0.1895822800    0.0579738169    0.4069595025
H       -2.9192644635    0.8034045437   -0.8147362447
