28   

C       -3.3211639231    4.3777546968    2.2439208488
C       -3.7904854302    3.1659425111    2.7566961958
C       -2.3300164200    4.3765762771    1.2590288986
C       -3.2713852012    1.9557803679    2.2825850629
C       -1.8018103698    3.1653662050    0.7966524100
C       -2.2641114281    1.9396938590    1.3025335613
C       -0.5315446173    0.3972595081    0.1308222595
C        0.5550295297   -0.2208900107    0.8478399188
C       -0.5199770938    0.0341626088   -1.3278069225
C       -1.7052720252    0.6891145939    0.8350892389
C        1.9100394139   -0.2984219168   -1.1906232890
C        0.6746870212   -0.9309499588   -3.2783727694
N        1.6950040139   -0.6095965665    0.2009471307
N        0.6614764982   -0.3978197757   -1.9208511672
O        0.4841733152   -0.4676257370    2.0390441423
O       -1.5565201559    0.0850692414   -1.9733745666
H       -3.7247866655    5.3154576216    2.6090920099
H       -4.5548754259    3.1625038071    3.5254641932
H       -1.9694149522    5.3145925686    0.8526196329
H       -3.6443615895    1.0259781510    2.6969654016
H       -1.0348588304    3.1790849828    0.0308060889
H       -2.0794452054   -0.1564223143    1.4029035163
H        2.3198316148    0.7129926660   -1.2857528418
H        2.6364311135   -1.0050800538   -1.6058348685
H        1.5986031216   -0.6445114400   -3.7906206665
H       -0.1602342261   -0.5409228702   -3.8693655969
H        0.6062338687   -2.0230872487   -3.2516275588
H        2.3583468093   -1.1332867599    0.7589275278
28   

C       -3.4678233134    4.3769208772    2.0371541149
C       -3.8199586138    3.2241959612    2.7433771903
C       -2.5585116618    4.2915340941    0.9797333621
C       -3.2647049571    1.9887815933    2.3910623632
C       -1.9924355651    3.0574325529    0.6389129702
C       -2.3346324603    1.8905729616    1.3412385514
C       -0.5676688164    0.3065544586    0.3024639628
C        0.4427285861   -0.4969294195    0.9442992941
C       -0.5892822519    0.1153714712   -1.1833444538
C       -1.7301788891    0.6159589429    0.9992064579
C        1.7743971510   -0.5733494108   -1.1151739387
C        0.4921787751   -0.6966799410   -3.2628267766
N        1.5216902348   -0.9664453355    0.2490681746
N        0.5312300365   -0.3854228030   -1.8378449609
O        0.3622574584   -0.8205219102    2.1165851165
O       -1.5894754669    0.4143955151   -1.8197988944
H       -3.8999621954    5.3338079707    2.3075709443
H       -4.5214138394    3.2867599166    3.5675894582
H       -2.2917463623    5.1813144023    0.4210156430
H       -3.5471618143    1.1071195603    2.9552348394
H       -1.2941252200    3.0042215752   -0.1887603286
H       -2.0053399714   -0.1314469751    1.7367425901
H        2.3550297554    0.3553884577   -1.1303668861
H        2.3657383760   -1.3555077454   -1.6030495852
H        0.9287498401    0.1246240786   -3.8396356983
H       -0.5341683676   -0.8591442433   -3.6078972458
H        1.0510148763   -1.6155155205   -3.4667055641
H        2.1315081188   -1.5911046017    0.7624920688
28   

C       -3.5031498303    4.3690639395    1.9197309197
C       -3.7844958542    3.2803974542    2.7479530886
C       -2.6365362835    4.2089279669    0.8358748366
C       -3.2018675833    2.0344171017    2.4903748295
C       -2.0414590364    2.9659758560    0.5896674969
C       -2.3132450257    1.8608503860    1.4140811042
C       -0.5585533986    0.2239358846    0.4581799466
C        0.4077233874   -0.6814260980    1.0302450652
C       -0.5737900502    0.1834651367   -1.0381814923
C       -1.6809349210    0.5709532910    1.1814983987
C        1.7468438805   -0.6454281386   -1.0253825279
C        0.4879610194   -0.4718197980   -3.1822183242
N        1.4589867653   -1.1509812209    0.2940796500
N        0.5251607596   -0.3124299800   -1.7321667832
O        0.3217840909   -1.0813325502    2.1784796355
O       -1.5479152707    0.5954197042   -1.6518951126
H       -3.9569718413    5.3339229566    2.1160919085
H       -4.4523116169    3.4010723486    3.5933635555
H       -2.4249858714    5.0474175055    0.1822944985
H       -3.4303107794    1.2043914615    3.1493756044
H       -1.3769122512    2.8612429138   -0.2600533595
H       -1.9101904621   -0.1069518472    1.9977222193
H        2.3833882629    0.2428481655   -0.9496895756
H        2.2936773332   -1.4125291218   -1.5839804396
H        0.9724152452    0.3814822428   -3.6670321201
H       -0.5408080976   -0.5449734052   -3.5497985829
H        1.0024673938   -1.3918206934   -3.4771176427
H        2.0441595592   -1.8344234814    0.7589883013
28   

C       -3.5262094929    4.3227256540    1.7806146396
C       -3.7447790675    3.2833783251    2.6862169312
C       -2.6839860355    4.1196172119    0.6854762228
C       -3.1256645334    2.0436687903    2.4929819405
C       -2.0526373104    2.8835172390    0.5021933300
C       -2.2646423990    1.8228452537    1.4018539458
C       -0.5523735902    0.1162681034    0.4755546056
C        0.3802292718   -0.8593715031    0.9866935123
C       -0.5681414297    0.1771205109   -1.0189372246
C       -1.6017219237    0.5333862538    1.2552839502
C        1.7287063738   -0.7162810465   -1.0552161258
C        0.4864055562   -0.3598573135   -3.1996817536
N        1.4106572535   -1.3189302694    0.2157037627
N        0.5235956484   -0.2932290391   -1.7422189403
O        0.2959666177   -1.3139865409    2.1146007482
O       -1.5427497027    0.6182208446   -1.6109290341
H       -4.0081598707    5.2828434152    1.9267677108
H       -4.3925397245    3.4372753497    3.5418017852
H       -2.5172650455    4.9204852730   -0.0257169952
H       -3.3078899068    1.2537790721    3.2129403198
H       -1.4012442734    2.7612596504   -0.3537996193
H       -1.7822801332   -0.0859595029    2.1282581800
H        2.3880880989    0.1449321350   -0.9017836078
H        2.2609757161   -1.4505884005   -1.6691759248
H        0.9657421302    0.5254752856   -3.6289381421
H       -0.5421913901   -0.4161277264   -3.5706823329
H        1.0061149421   -1.2557410390   -3.5537440909
H        1.9834901052   -2.0386103383    0.6394453770
28   

C       -3.6688425518    4.4605812671    1.7853427590
C       -3.7722260544    3.4535730346    2.7450984276
C       -2.8792933822    4.2555092760    0.6526956641
C       -3.0936894895    2.2434043429    2.5665666401
C       -2.1884051587    3.0495220756    0.4826729110
C       -2.2890529636    2.0153855379    1.4334058598
C       -0.6164262485    0.2767703450    0.4624806051
C        0.3039991527   -0.7456231570    0.9007778761
C       -0.6535541906    0.4281227142   -1.0242559032
C       -1.5706485656    0.7515161512    1.3198164504
C        1.6359708653   -0.4774709223   -1.1348717410
C        0.3829702140    0.0160635775   -3.2443210447
N        1.3110047112   -1.1766143015    0.0838955764
N        0.4324718022    0.0043581468   -1.7853097142
O        0.2428391699   -1.2517887739    2.0080824671
O       -1.6496414619    0.8628240141   -1.5835908506
H       -4.1970753755    5.3978144524    1.9196275852
H       -4.3770593704    3.6093421483    3.6312509389
H       -2.7972272826    5.0331408350   -0.0980082058
H       -3.1894267561    1.4797759895    3.3302804036
H       -1.5722228736    2.9439549650   -0.3995261244
H       -1.6697217215    0.1725772017    2.2325997011
H        2.2997926680    0.3653732432   -0.9134551232
H        2.1649559613   -1.1638969993   -1.8045486188
H        0.9072257215    0.8955297807   -3.6309735669
H       -0.6478123103    0.0346769792   -3.6126726417
H        0.8522001221   -0.8868314076   -3.6476472717
H        1.8885367062   -1.9186651552    0.4599626661
28   

C       -3.7083326081    4.4359223096    1.7478155031
C       -3.7111454890    3.4776588068    2.7605227507
C       -2.9767268045    4.2039056923    0.5825829712
C       -2.9931144708    2.2880630863    2.6008868480
C       -2.2460926463    3.0189841073    0.4302116657
C       -2.2496747969    2.0277833295    1.4321895253
C       -0.6369354768    0.2197057124    0.4523287466
C        0.2399058946   -0.8518585089    0.8647336798
C       -0.6443921047    0.4254178471   -1.0275293286
C       -1.4954000090    0.7808751293    1.3524531878
C        1.6222179016   -0.5371387098   -1.1272333986
C        0.4354201654    0.0846523454   -3.2405451743
N        1.2412647686   -1.2880645302    0.0436844421
N        0.4510190966    0.0131980057   -1.7821695332
O        0.1579582070   -1.3853994864    1.9578127200
O       -1.6349987716    0.8603587093   -1.5953532282
H       -4.2676573775    5.3570370610    1.8669297515
H       -4.2690218004    3.6549256524    3.6730761747
H       -2.9685424001    4.9458210305   -0.2076984242
H       -3.0135996657    1.5635942843    3.4073365309
H       -1.6711639882    2.9096920104   -0.4773205031
H       -1.5366035477    0.2500132973    2.2982229620
H        2.3035294568    0.2727537496   -0.8444228432
H        2.1497564649   -1.2039707420   -1.8175437319
H        0.9890894949    0.9659789266   -3.5789598314
H       -0.5852290137    0.1430646809   -3.6320568979
H        0.8930258418   -0.8121182593   -3.6700026992
H        1.7947619822   -2.0555945395    0.4044395493
28   

C       -3.7690678746    4.4409133824    1.7725299046
C       -3.6498040140    3.5346814499    2.8243205838
C       -3.1183458537    4.1826995382    0.5662918945
C       -2.8938323976    2.3693931250    2.6620504206
C       -2.3486556093    3.0231103763    0.4101940831
C       -2.2323895424    2.0782602958    1.4507653261
C       -0.6758792316    0.2143017146    0.4516183265
C        0.1512251290   -0.9024720198    0.8480386942
C       -0.6348871279    0.4707834717   -1.0192342357
C       -1.4418727712    0.8525603615    1.3820495918
C        1.6038596173   -0.5586825260   -1.0855568334
C        0.5112886083    0.1856254033   -3.2086467886
N        1.1545292282   -1.3482191281    0.0347036452
N        0.4764397741    0.0628329822   -1.7536035686
O        0.0336798692   -1.4598368483    1.9259076605
O       -1.6122308655    0.9052321970   -1.6085832624
H       -4.3588120741    5.3426832247    1.8930369666
H       -4.1427990376    3.7330974781    3.7693161384
H       -3.2022360782    4.8859262077   -0.2544117271
H       -2.8222996057    1.6866995032    3.5013992953
H       -1.8381988119    2.9099690894   -0.5326419668
H       -1.4247460265    0.3607707305    2.3493552918
H        2.3024872305    0.2120107232   -0.7420894168
H        2.1321416765   -1.2123945728   -1.7877955131
H        1.1184008045    1.0492732673   -3.4972825217
H       -0.4908894819    0.3093403789   -3.6312291065
H        0.9384394644   -0.7174101421   -3.6559809453
H        1.6754896487   -2.1425315209    0.3858302915
28   

C       -3.8328991893    4.4479910404    1.8170561533
C       -3.5642854596    3.6200633445    2.9043150365
C       -3.2888535403    4.1408461202    0.5708343493
C       -2.7670590375    2.4832880492    2.7383394173
C       -2.4779579754    3.0103817872    0.4090106529
C       -2.2101927369    2.1404493356    1.4873272445
C       -0.6975305456    0.2311095879    0.4826879803
C        0.0855956119   -0.9162095884    0.8797748044
C       -0.5959032775    0.5240289068   -0.9781492033
C       -1.3785390157    0.9417304749    1.4277949484
C        1.6183443486   -0.5623968096   -0.9884350131
C        0.6450027821    0.2954477316   -3.1225709689
N        1.1015153539   -1.3720830505    0.0880042365
N        0.5381039091    0.1165585319   -1.6773076156
O       -0.0739304938   -1.4847569611    1.9463334567
O       -1.5594704535    0.9325343145   -1.6058901525
H       -4.4557863577    5.3268622126    1.9400741983
H       -3.9739632532    3.8566467632    3.8798461292
H       -3.4889444941    4.7833778008   -0.2790758671
H       -2.5819609805    1.8629225039    3.6081796738
H       -2.0642528021    2.8689953440   -0.5742031415
H       -1.2965379677    0.4951004760    2.4135156600
H        2.3298535320    0.1719508299   -0.5957719023
H        2.1474456738   -1.2122728407   -1.6938872386
H        1.6270798484    0.7058643346   -3.3774809812
H       -0.1067776398    0.9939353432   -3.5037692134
H        0.5131611745   -0.6642986972   -3.6319193838
H        1.5875349216   -2.1892873771    0.4367209981
28   

C       -3.8680615810    4.3964760948    1.8344698984
C       -3.2069022033    3.8305635683    2.9214030792
C       -3.7161123961    3.8294649605    0.5706475734
C       -2.3822882984    2.7162052919    2.7367257154
C       -2.8972536058    2.7080233850    0.3890840016
C       -2.1802111503    2.1379666805    1.4640320951
C       -0.7076732070    0.2076594637    0.4350667388
C       -0.0577014189   -1.0252775493    0.8294752588
C       -0.5410974475    0.5520283975   -1.0081595666
C       -1.3050384471    0.9713541738    1.3974625175
C        1.3117103611   -1.0671875750   -1.1913601933
C        0.5006201350    0.1330400696   -3.2136919431
N        0.7782882228   -1.6961962004   -0.0142397768
N        0.3338800754   -0.1899549130   -1.7997636640
O       -0.2136610136   -1.5231786176    1.9314864444
O       -1.0168685560    1.5553628418   -1.5076448881
H       -4.5063148060    5.2620013176    1.9720453793
H       -3.3318158660    4.2540432630    3.9115853800
H       -4.2467412731    4.2475983218   -0.2771848619
H       -1.8849671263    2.3063272453    3.6086557662
H       -2.9067890086    2.2857848801   -0.6010649864
H       -1.0805879707    0.6222145502    2.4001604506
H        2.2059250741   -0.4913849737   -0.9270135278
H        1.6015338086   -1.8435000982   -1.9071399206
H        1.2144587786    0.9553740972   -3.3291243596
H       -0.4538056197    0.4290173284   -3.6611585089
H        0.8677132333   -0.7372518447   -3.7664168147
H        1.1728357789   -2.5471828455    0.3674933855
28   

C       -3.9607573689    4.2914291088    1.7287340382
C       -3.2519149446    3.8331573637    2.8377509804
C       -3.7570095331    3.6903011796    0.4866967352
C       -2.3333035453    2.7877702893    2.6984832133
C       -2.8435969181    2.6375346581    0.3507817544
C       -2.0922747126    2.1753871305    1.4509623492
C       -0.5941193530    0.2612937064    0.4442298619
C        0.0041789358   -0.9911865309    0.8488015952
C       -0.3536808879    0.6293516613   -0.9810754992
C       -1.1377057581    1.0732784636    1.4022842037
C        1.2805232937   -1.2109751419   -1.2356599814
C        0.6420022372    0.1810608860   -3.1947400148
N        0.7610374441   -1.7408021937   -0.0033237168
N        0.4285512378   -0.1832912440   -1.7976892497
O       -0.1401606780   -1.4478891419    1.9700143326
O       -0.6987160097    1.7103091160   -1.4301719283
H       -4.6722970169    5.1028094723    1.8325715264
H       -3.4136498804    4.2860074893    3.8094324394
H       -4.3157833660    4.0306016916   -0.3776084821
H       -1.8007517579    2.4547607245    3.5822347465
H       -2.7779924547    2.1765134255   -0.6228194945
H       -0.8764304705    0.7684445293    2.4106289571
H        2.2784199310   -0.7946987323   -1.0576178170
H        1.3745100142   -2.0311724725   -1.9550313904
H        1.4047984584    0.9634435410   -3.2664338082
H       -0.2860032051    0.5490262337   -3.6444342532
H        0.9694613969   -0.6874756339   -3.7746680369
H        1.1153896461   -2.5995264941    0.4001667202
28   

C       -4.0348858576    4.2366103318    1.7342466393
C       -3.2650777418    3.8662499554    2.8366007978
C       -3.8230051420    3.6114911985    0.5046466888
C       -2.2809173637    2.8810510683    2.7043721655
C       -2.8446355106    2.6179914701    0.3764646960
C       -2.0423574250    2.2416202414    1.4715588177
C       -0.5770280419    0.3297687022    0.4469267067
C       -0.0260038997   -0.9408358041    0.8497693533
C       -0.2813660145    0.7185872075   -0.9620420450
C       -1.0286584283    1.1963826025    1.4095529631
C        1.1726967566   -1.2685990266   -1.2764571683
C        0.7238236159    0.2783510938   -3.1711801740
N        0.6703525382   -1.7375961134   -0.0111490883
N        0.4544312831   -0.1208970741   -1.7935366259
O       -0.1566161140   -1.3708550477    1.9829838259
O       -0.5707989953    1.8290844080   -1.3811723239
H       -4.7972527458    5.0010456398    1.8333974352
H       -3.4310348345    4.3401350430    3.7974528753
H       -4.4222773027    3.8893361031   -0.3548137298
H       -1.7013509013    2.6116088972    3.5801129604
H       -2.7469578795    2.1368145972   -0.5864521306
H       -0.7062540149    0.9317703174    2.4116854066
H        2.2300595600   -1.0045973942   -1.1628937309
H        1.1002477554   -2.0863996876   -2.0010221578
H        1.5518541364    0.9942126844   -3.1997123667
H       -0.1608624953    0.7412044221   -3.6206247021
H        0.9868765991   -0.5918243661   -3.7807804089
H        1.0028576116   -2.5991008302    0.4050018869
28   

C       -4.0935818542    4.1696755776    1.7688995041
C       -3.2627811628    3.8816985636    2.8524672794
C       -3.8762859409    3.5351651632    0.5444061906
C       -2.2145489143    2.9664296134    2.7079191572
C       -2.8353088521    2.6093555954    0.4051711374
C       -1.9805131175    2.3127023388    1.4830551351
C       -0.5511876252    0.4046177143    0.4365775974
C       -0.0464197471   -0.8755963486    0.8604395072
C       -0.1977732626    0.7804821995   -0.9624482624
C       -0.9062021502    1.3337567770    1.3879375061
C        1.0983787216   -1.3187495597   -1.2821785270
C        0.8526294488    0.3140383208   -3.1435928664
N        0.6082348523   -1.7201288735    0.0121416312
N        0.5173394141   -0.0877875669   -1.7813262827
O       -0.1708300382   -1.2663698618    2.0083070261
O       -0.4592354867    1.8974316758   -1.3854249507
H       -4.9052067568    4.8801252411    1.8780755516
H       -3.4317282650    4.3646855846    3.8082125502
H       -4.5168404141    3.7556509620   -0.3017888123
H       -1.5876658117    2.7566806208    3.5671807797
H       -2.7104607776    2.1233081422   -0.5536006282
H       -0.5110229516    1.1195767484    2.3760087508
H        2.1852878605   -1.1945149307   -1.2214581356
H        0.8854791206   -2.1217382440   -1.9955384507
H        1.7161259229    0.9871051258   -3.1350456271
H        0.0077256306    0.8256358452   -3.6162481102
H        1.0926878139   -0.5607584878   -3.7561529710
H        0.9254244209   -2.5741754270    0.4549046533
28   

C       -4.1588981800    4.1029958334    1.8554104353
C       -3.2548429050    3.8860484665    2.8971854864
C       -3.9649744098    3.4669098739    0.6271726984
C       -2.1580667681    3.0376695198    2.7085070120
C       -2.8761697910    2.6061193334    0.4453095950
C       -1.9552712106    2.3779487411    1.4824790095
C       -0.5755508761    0.4715813806    0.3902398747
C       -0.1313604236   -0.8168271935    0.8495337997
C       -0.1540982633    0.8131910850   -0.9990714067
C       -0.8344180784    1.4648461545    1.3182076623
C        1.0421272226   -1.3536045179   -1.2582061576
C        0.9815266984    0.2941506000   -3.1243791257
N        0.5049575808   -1.7058335994    0.0327535155
N        0.5697531096   -0.0843924759   -1.7765946655
O       -0.2761702103   -1.1662417482    2.0080548593
O       -0.4033817322    1.9219543507   -1.4514509208
H       -5.0076938369    4.7619959475    1.9991533103
H       -3.4049460696    4.3718821842    3.8545913751
H       -4.6582751770    3.6382850555   -0.1882630342
H       -1.4733474294    2.8794924039    3.5339384815
H       -2.7483319092    2.1226189158   -0.5159061998
H       -0.3524370248    1.3017210254    2.2770179671
H        2.1344441984   -1.3152512549   -1.1819153367
H        0.7768373063   -2.1429253332   -1.9692704630
H        1.8707999624    0.9312269538   -3.0804777055
H        0.1805242373    0.8362189050   -3.6378101075
H        1.2127965423   -0.5938288081   -3.7211690072
H        0.7930454683   -2.5526808404    0.5081321608
28   

C       -4.1906858596    4.0048706675    1.9648255334
C       -3.1974879385    3.8699882899    2.9379452890
C       -4.0409362379    3.3706166438    0.7289474605
C       -2.0562279893    3.1039616741    2.6740115209
C       -2.9067908254    2.5911613956    0.4731788046
C       -1.9011346043    2.4442260330    1.4419606516
C       -0.5181760663    0.5828847507    0.2702367871
C       -0.1410235904   -0.7101878211    0.7730149205
C        0.0133261744    0.8878462331   -1.0885083576
C       -0.7377236501    1.6154604011    1.1802476729
C        0.9662161635   -1.3990848696   -1.3333982864
C        1.2617666325    0.3004785119   -3.1307240135
N        0.4669322163   -1.6533104139   -0.0042446925
N        0.7137528771   -0.0592247197   -1.8269869104
O       -0.3029307958   -1.0094908462    1.9431511198
O       -0.1436421528    2.0101808666   -1.5491227493
H       -5.0737877051    4.6003223513    2.1672983006
H       -3.3127962004    4.3553947026    3.9003621230
H       -4.8026169021    3.4821272228   -0.0342050678
H       -1.3008507367    3.0066521985    3.4454311451
H       -2.7993063029    2.1102291026   -0.4928542184
H       -0.1589140161    1.5111320250    2.0924048141
H        2.0490827196   -1.5658623197   -1.3284609415
H        0.5126900389   -2.1197786597   -2.0216565331
H        2.2006094429    0.8494349439   -3.0055432896
H        0.5567429338    0.9233926874   -3.6911687541
H        1.4548742837   -0.5958609838   -3.7286651671
H        0.7399822793   -2.4817247274    0.5108587728
28   

C       -4.2208137417    3.2361058865    2.4827521105
C       -3.0658488883    3.3583721272    3.2591589748
C       -4.1702284980    2.5470211870    1.2682630190
C       -1.8624163283    2.7950930839    2.8195944566
C       -2.9688502381    1.9717163589    0.8375322667
C       -1.8000304753    2.0868046469    1.6072385305
C       -0.2945359970    0.4932011980    0.2095163405
C        0.0644168635   -0.8250724830    0.6675195604
C        0.3055234472    0.8056354534   -1.1339461989
C       -0.5629857322    1.4765270594    1.1682981049
C        0.3292156515   -1.5973704527   -1.6409925783
C        1.4605930954    0.0193153052   -3.1870123405
N        0.4236694604   -1.8037729064   -0.2168874251
N        0.6967720529   -0.2341613373   -1.9706025508
O        0.1118624103   -1.1057005474    1.8523521543
O        0.4823602671    1.9691502914   -1.4636464219
H       -5.1527813570    3.6744144765    2.8216763127
H       -3.1021807623    3.8866547080    4.2051508680
H       -5.0623104350    2.4574461169    0.6589668395
H       -0.9782927283    2.8956174535    3.4389249942
H       -2.9433345461    1.4416524886   -0.1076174906
H        0.2122993135    1.5523284233    1.9236305204
H        1.0051986760   -2.2939868358   -2.1480891820
H       -0.6926796547   -1.8014674270   -1.9786632778
H        2.5285883329   -0.1227072473   -2.9935438488
H        1.3035315120    1.0385946775   -3.5541485614
H        1.1482615031   -0.6655857941   -3.9816110032
H        0.7639812167   -2.6638485207    0.1955091514
