24

C      0.64371   -2.02897    2.17394
C      3.09603   -1.71331    2.21057
C     -4.55848   -1.73644    3.86088
C     -1.17240   -2.03721    3.90443
C     -1.95159   -0.80586    3.43025
C     -0.51542   -2.84377    2.76737
N     -0.03340   -4.13467    3.29742
N      1.87832   -2.40272    2.60123
O      0.43178   -1.09134    1.39918
S     -3.47936   -1.18920    2.49290
H      3.84812   -2.42898    1.86225
H      3.51574   -1.13748    3.04439
H      2.85086   -1.02637    1.39950
H     -5.54139   -1.94214    3.42972
H     -4.66407   -0.95029    4.61468
H     -4.19152   -2.65087    4.33576
H     -0.39731   -1.72438    4.61569
H     -1.84598   -2.70526    4.45630
H     -1.34054   -0.20825    2.75086
H     -2.22333   -0.17769    4.28497
H     -1.25181   -2.95740    1.96237
H      0.12491   -4.78327    2.52738
H     -0.75138   -4.55495    3.88495
H      1.89890   -3.17818    3.25656
