26

C      1.15674   -4.16502   -3.18708
C      1.64137   -4.73430   -2.00174
C      0.22516   -3.12814   -3.11406
C      1.19821   -4.27186   -0.76367
C     -0.23010   -2.64984   -1.87824
C      0.26131   -3.23000   -0.70179
C      0.51897    1.81378   -0.67582
C      1.29591    0.87163   -0.12678
C     -0.63212   -0.44857    0.31678
C     -0.97638    1.74575   -0.45812
C     -1.11210   -1.83518    0.70329
N     -1.45350    0.37195   -0.21876
N      0.70506   -0.17958    0.60436
O     -0.10394   -2.84010    0.57150
H      1.50259   -4.52615   -4.15151
H      2.36547   -5.54406   -2.04120
H     -0.15603   -2.67420   -4.02516
H      1.55863   -4.70630    0.16455
H     -0.94079   -1.83188   -1.85185
H      0.95467    2.60349   -1.27953
H      2.37567    0.83458   -0.22681
H     -1.27628    2.36945    0.39952
H     -1.51527    2.14531   -1.32408
H     -2.00614   -2.07221    0.12107
H     -1.37234   -1.84585    1.76523
H      1.27496   -0.99784    0.78665
