34

C      3.53836   -4.50234    0.56058
C      4.18602   -5.67721    0.24988
C      0.73479   -4.80027   -2.39540
C      2.45989   -4.36596   -0.38237
C      2.50262   -5.48912   -1.23668
C      1.42088   -3.43981   -0.65873
C      0.01485    0.85866   -1.63864
C      0.94538   -0.32788   -1.36664
C     -0.32081    1.59391   -0.34032
C     -0.00981   -0.41842    0.96640
C      0.34572   -1.23152   -0.28147
C     -1.33797    1.38796    1.84215
N      1.66186   -5.74872   -2.25399
N      0.57036   -3.67460   -1.67315
N      3.55910   -6.27285   -0.83776
N     -0.91293    0.68137    0.64059
N      1.24388   -2.31835    0.10585
H      3.81030   -3.83830    1.37116
H      5.04336   -6.14271    0.71664
H      0.01751   -4.94617   -3.20137
H      0.47903    1.55525   -2.34574
H     -0.91585    0.50091   -2.09393
H      1.11710   -0.91468   -2.27366
H      1.92238    0.04040   -1.02169
H      0.59707    2.07056    0.06307
H     -1.03957    2.39703   -0.53611
H     -0.49693   -1.07319    1.69627
H      0.92712   -0.04363    1.43641
H     -0.56450   -1.69273   -0.66813
H     -1.82721    0.69011    2.52925
H     -2.06137    2.16548    1.57674
H     -0.49861    1.86946    2.38063
H      3.81568   -7.14548   -1.27893
H      2.02963   -2.06199    0.69082
