30

C      0.01226    1.63588    6.93814
C      1.92005   -1.05256    0.00543
C      0.45178    2.13293    5.70632
C      0.23091    0.28902    7.24711
C      0.94548   -0.33653    0.72023
C      2.89398   -1.74057    0.71424
C      1.09860    1.30128    4.79006
C      0.85955   -0.55403    6.32938
C      0.96204   -0.29286    2.10675
C      2.93803   -1.72015    2.12347
C      1.29653   -0.05838    5.08867
C      1.96325   -0.96538    2.84837
C      3.97522   -2.49372    2.83069
C      5.90305   -3.84757    2.64155
N      1.98053   -0.93658    4.22550
O      4.05134   -2.64137    4.05191
O      4.87949   -3.06393    1.99821
H     -0.48616    2.28951    7.64857
H      1.90321   -1.08055   -1.07981
H      0.30826    3.18235    5.46123
H     -0.09956   -0.11207    8.20185
H      0.15381    0.18419    0.18674
H      3.64567   -2.31694    0.18752
H      1.47446    1.71090    3.85835
H      1.01182   -1.60503    6.56244
H      0.17887    0.23730    2.63519
H      6.52784   -4.22504    1.83202
H      5.45799   -4.67319    3.20183
H      6.48908   -3.22650    3.32290
H      2.63347   -1.59171    4.65127
