28   

C       -0.9864300620    0.3276404380    0.5217255889
C       -2.0409331414   -0.5895523128    0.6208312059
C       -1.7878434183    1.4789604695    2.5031844557
C       -3.9210815156    0.3917739006    3.5397769427
C       -2.8339443103    0.5554034988    2.5899832913
C       -0.8416024410    1.3739988090    1.4579443058
C       -2.9511021636   -0.4560452814    1.6616709478
C       -4.6570454247   -0.7109892841    3.1426344409
C       -5.7902527125   -1.3931287484    3.7610273493
C        1.2176044663    2.2844759240    2.5629081982
C       -0.2032473180    3.7696740902    1.0968232373
C        0.3123452865    2.3470651427    1.3292561502
N       -4.0551451139   -1.2375637926    1.9771123605
O       -6.1773432009   -2.5078616311    3.4361591648
O       -6.3724315954   -0.7090115856    4.7738574812
H       -0.2745525745    0.2218148232   -0.2887734556
H       -2.1447439514   -1.3924845071   -0.0980152164
H       -1.7103709936    2.2651782251    3.2438487015
H       -4.1130631447    0.9999326429    4.4155262109
H        0.6734033753    2.5783885243    3.4654243856
H        2.0726789283    2.9562436522    2.4385673380
H        1.5962976516    1.2663584598    2.6984292526
H       -0.8001172077    4.1145145877    1.9465122068
H       -0.8254266084    3.7997453741    0.1966668344
H        0.6363181416    4.4580737579    0.9587479557
H        0.9162812151    2.0657639317    0.4599784460
H       -4.3670049219   -2.0780269777    1.4945212101
H       -7.0858090585   -1.2860253231    5.0903287327
28   

C       -0.7191884570    0.1396850589    0.7973101782
C       -1.7288342091   -0.8220881145    0.9347576027
C       -1.8743696545    1.5911755730    2.3631893860
C       -4.0728014776    0.5522982142    3.3072384975
C       -2.8724266225    0.6206340297    2.4923669923
C       -0.7737937891    1.3587291503    1.5067739836
C       -2.7943237283   -0.5599106376    1.7866862856
C       -4.6811426212   -0.6639054536    3.0512502774
C       -5.8041141019   -1.3321243718    3.7081728754
C        1.0248090742    2.6519739542    2.6881133474
C       -0.1997042642    3.6673088954    0.7277083767
C        0.3382446953    2.3751302931    1.3471042584
N       -3.8866239122   -1.3556472232    2.1081900115
O       -5.9340257219   -2.5466154377    3.7764410529
O       -6.6703818804   -0.4929076115    4.3225486761
H        0.1148326383   -0.0670285246    0.1365853250
H       -1.6780528107   -1.7580883350    0.3929803178
H       -1.9509686580    2.5107380958    2.9299750096
H       -4.4115949071    1.2917205730    4.0227860272
H        0.3239160799    3.0859007228    3.4074564849
H        1.8561629811    3.3502641690    2.5496915103
H        1.4227508216    1.7211806045    3.1047628435
H       -0.9495217438    4.1301470024    1.3763747943
H       -0.6598160714    3.4537186251   -0.2423245033
H        0.6158690690    4.3805503373    0.5729958872
H        1.0935893209    1.9681347578    0.6664265820
H       -4.0548714732   -2.3101673038    1.7973804416
H       -7.3325038955   -1.0709991542    4.7340767636
28   

C       -0.7446471483    0.1688261405    0.7513389516
C       -1.7605347019   -0.7880607221    0.8772772139
C       -1.8844602132    1.6035333410    2.3435000871
C       -4.0776410552    0.5582784488    3.2905572827
C       -2.8882234124    0.6374903252    2.4614866874
C       -0.7881769332    1.3768534455    1.4801655573
C       -2.8211290134   -0.5322211139    1.7373433884
C       -4.6936213610   -0.6508097569    3.0216005853
C       -5.7700641126   -1.3410629969    3.7408592179
C        1.0184156956    2.6416292043    2.6820882570
C       -0.1936586173    3.6894135374    0.7311625629
C        0.3327193174    2.3859259957    1.3362167276
N       -3.9123149484   -1.3301799974    2.0580603148
O       -5.7641513957   -2.5341678982    4.0049147043
O       -6.7434709011   -0.5210687281    4.2005118941
H        0.0865221256   -0.0338976187    0.0857999016
H       -1.7166030123   -1.7167819589    0.3225564412
H       -1.9516062307    2.5134672059    2.9267745640
H       -4.3950391476    1.2790292904    4.0342880263
H        0.3197541009    3.0733806429    3.4048873288
H        1.8559376850    3.3344454163    2.5536116954
H        1.4076449132    1.7029052393    3.0890779497
H       -0.9420683596    4.1495732722    1.3833672094
H       -0.6524063544    3.4909868425   -0.2427170294
H        0.6276364713    4.3984028424    0.5876072800
H        1.0867077403    1.9810408137    0.6527832123
H       -4.0698416152   -2.2867568583    1.7493052639
H       -7.3531910798   -1.1000020032    4.6852087017
28   

C       -0.7784984864    0.1823206187    0.7134493328
C       -1.8012000487   -0.7682050394    0.8332070759
C       -1.8947885999    1.6027746773    2.3345644246
C       -4.0827710294    0.5567259811    3.2907124850
C       -2.9049561338    0.6427399524    2.4465594160
C       -0.8067725078    1.3799741531    1.4599450459
C       -2.8531944232   -0.5166571368    1.7051697454
C       -4.7088442116   -0.6439031980    3.0121550669
C       -5.7521873969   -1.3441299480    3.7827636174
C        1.0149035250    2.6165040092    2.6703075785
C       -0.1953976644    3.6952340427    0.7353315293
C        0.3223812255    2.3810088505    1.3240823237
N       -3.9450204762   -1.3135251532    2.0273423110
O       -5.6274556102   -2.4655034200    4.2472446862
O       -6.8406125620   -0.5867198759    4.0502694635
H        0.0466332242   -0.0177752985    0.0396530081
H       -1.7677745072   -1.6897618445    0.2659805783
H       -1.9495240550    2.5038927663    2.9326227606
H       -4.3785123400    1.2627173178    4.0570345743
H        0.3226873037    3.0466525864    3.4002157732
H        1.8578897267    3.3034875685    2.5462339043
H        1.3975560497    1.6702833501    3.0660200508
H       -0.9382932589    4.1536816859    1.3950184311
H       -0.6585855295    3.5112948754   -0.2392829519
H        0.6310206258    4.3993357826    0.5972550993
H        1.0708478566    1.9774669638    0.6338203953
H       -4.1026182530   -2.2667110991    1.7098854691
H       -7.4119161689   -1.1492050974    4.5970249037
28   

C       -0.7908531959    0.1986819831    0.6994304734
C       -1.8157950116   -0.7490465713    0.8221650575
C       -1.8781958371    1.6038990476    2.3531322878
C       -4.0580945481    0.5560275521    3.3260618367
C       -2.8907033419    0.6466184107    2.4679676443
C       -0.8037332331    1.3874775678    1.4603301071
C       -2.8543691853   -0.5038127158    1.7119109346
C       -4.6915295561   -0.6365995712    3.0422404410
C       -5.7436563493   -1.3296083416    3.8250237614
C        1.0375589188    2.6073536360    2.6586751580
C       -0.1944524889    3.7071941232    0.7494597266
C        0.3269239817    2.3861505771    1.3194873385
N       -3.9462236435   -1.2990280472    2.0381999820
O       -5.5533278557   -2.3220947437    4.5044438432
O       -6.9415052659   -0.7022737124    3.8115641155
H        0.0237954520    0.0035392163    0.0115652944
H       -1.7941967087   -1.6635839486    0.2431621448
H       -1.9209519565    2.4982037597    2.9622780712
H       -4.3407735303    1.2558949296    4.1027150864
H        0.3563113816    3.0331260602    3.4013464344
H        1.8810639308    3.2928171421    2.5297960922
H        1.4222677122    1.6564297627    3.0408768414
H       -0.9276613400    4.1615049570    1.4227139637
H       -0.6704834755    3.5335527933   -0.2208515273
H        0.6321462160    4.4102853909    0.6073738173
H        1.0652138205    1.9867474961    0.6159828327
H       -4.1178147916   -2.2412796668    1.6977897016
H       -7.5114856191   -1.2319645562    4.3913071644
28   

C       -0.7409149378    0.1692353684    0.8096629114
C       -1.7429446304   -0.7940615491    0.9852911191
C       -1.7922544701    1.5820404955    2.4807078397
C       -3.9463953113    0.5322985146    3.5148979507
C       -2.7843276661    0.6106046078    2.6464398809
C       -0.7479934208    1.3700433441    1.5513265686
C       -2.7529424307   -0.5516272561    1.9078594853
C       -4.5678453863   -0.6674623433    3.2654296198
C       -5.7607136132   -1.2733499419    3.9280683613
C        1.1326187626    2.6252951877    2.6392260532
C       -0.2263196722    3.7030394482    0.8045558062
C        0.3512400350    2.3915453004    1.3430216791
N       -3.8345565736   -1.3468126884    2.2642340384
O       -5.7207123935   -2.0011817551    4.8993623941
O       -6.9343355990   -0.9422550443    3.3438257061
H        0.0486759245   -0.0208058089    0.0917924877
H       -1.7300744345   -1.7143328708    0.4151898939
H       -1.8323441473    2.4887944362    3.0713638762
H       -4.2577465283    1.2717181379    4.2423085155
H        0.4853202378    3.0345603277    3.4205894749
H        1.9528343681    3.3285134008    2.4642136528
H        1.5580449248    1.6817036946    2.9955538779
H       -0.9255036955    4.1466022597    1.5197865583
H       -0.7562326313    3.5203445500   -0.1357280463
H        0.5781386113    4.4200110017    0.6131515784
H        1.0545509928    2.0063918047    0.5970051643
H       -4.0457823428   -2.2676693961    1.8904839024
H       -7.6149758238   -1.3888962378    3.8716876612
28   

C       -0.7091455158    0.0989681672    0.9149766349
C       -1.6958793598   -0.8700028258    1.1400902258
C       -1.7279248817    1.5385116361    2.5831315931
C       -3.8724605688    0.5156319156    3.6605215502
C       -2.7064828853    0.5626547922    2.7957482312
C       -0.7081074216    1.3161690097    1.6295463851
C       -2.6829362546   -0.6164544723    2.0843081233
C       -4.4942707223   -0.6959417128    3.4531348401
C       -5.8127149268   -1.1594621454    3.9537379226
C        1.2090989258    2.5936733537    2.6136302892
C       -0.2484030041    3.6544940599    0.8461495765
C        0.3667010041    2.3490492700    1.3590355320
N       -3.7652989674   -1.3995196172    2.4650267235
O       -6.0629183745   -1.5071615922    5.0908484677
O       -6.7349396998   -1.2824792343    2.9707026299
H        0.0591587705   -0.0972758086    0.1759988662
H       -1.6940370656   -1.7993885323    0.5848321657
H       -1.7656607167    2.4611986680    3.1487704659
H       -4.2172295333    1.3032090019    4.3192791686
H        0.5959952131    2.9960777812    3.4256171138
H        2.0114722471    3.3058385763    2.3971886766
H        1.6620965455    1.6552383238    2.9489155899
H       -0.9117673343    4.0976542775    1.5948982831
H       -0.8256540135    3.4644389426   -0.0643419873
H        0.5397134538    4.3762354157    0.6097652199
H        1.0343233012    1.9680944092    0.5788643843
H       -4.0319211508   -2.2903787873    2.0555722427
H       -7.5319535971   -1.6131082466    3.4147408465
28   

C       -0.7026092093    0.1240970520    0.9331286891
C       -1.6959422797   -0.8326659450    1.1813569845
C       -1.6877712042    1.5932647865    2.5953819187
C       -3.8328451403    0.6090382497    3.7041335985
C       -2.6733345267    0.6298778543    2.8303069075
C       -0.6811919338    1.3495797000    1.6332228893
C       -2.6694484162   -0.5585573157    2.1339351537
C       -4.4701540256   -0.6024412540    3.5213735214
C       -5.7970469325   -1.0163893167    4.0153400257
C        1.2703365020    2.6043375544    2.5743330062
C       -0.2087934674    3.6824369635    0.8357600427
C        0.3995757762    2.3693139707    1.3375253253
N       -3.7574176624   -1.3242945883    2.5344276796
O       -6.1430820753   -1.0740225870    5.1799780831
O       -6.6002793070   -1.4865194017    3.0304706329
H        0.0548198545   -0.0881367504    0.1873833089
H       -1.7100301623   -1.7683106463    0.6368863559
H       -1.7105679835    2.5230720477    3.1500830396
H       -4.1683924142    1.4122807928    4.3488607773
H        0.6783461060    3.0136868750    3.3984694579
H        2.0763459697    3.3071042294    2.3413368213
H        1.7190843565    1.6607121728    2.9006492451
H       -0.8491787017    4.1364100938    1.5978919202
H       -0.8084070461    3.4990805204   -0.0615402421
H        0.5838618055    4.3928429471    0.5809021568
H        1.0457777695    1.9791256144    0.5440069667
H       -4.0564473889   -2.2052901175    2.1250309248
H       -7.4164860262   -1.7541936507    3.4825299303
28   

C       -0.7185403046    0.1453887081    0.9037244446
C       -1.7220254629   -0.8037971137    1.1403032551
C       -1.6883402231    1.6049372999    2.5833893600
C       -3.8410039543    0.6292100642    3.6840221314
C       -2.6838804893    0.6492299356    2.8068734183
C       -0.6843130073    1.3621703195    1.6184163226
C       -2.6927685998   -0.5310194892    2.0960612356
C       -4.4920259588   -0.5742330348    3.4858596909
C       -5.8049862226   -0.9857437453    3.9977311689
C        1.2761927698    2.5902935644    2.5775807843
C       -0.1866721191    3.6965191748    0.8430120232
C        0.4076513581    2.3736489562    1.3357581083
N       -3.7876589632   -1.2907534936    2.4894538755
O       -6.2134288495   -0.8290928908    5.1335999578
O       -6.5195901012   -1.7063888900    3.0979959270
H        0.0369972265   -0.0660226906    0.1558371904
H       -1.7456057942   -1.7329502609    0.5851423032
H       -1.7011333037    2.5279569869    3.1496611616
H       -4.1645070600    1.4240963965    4.3453082994
H        0.6854243298    2.9990396756    3.4028875383
H        2.0898713863    3.2869522729    2.3530277757
H        1.7145372088    1.6397945504    2.8980203898
H       -0.8260063445    4.1495607474    1.6066004645
H       -0.7843838190    3.5263543511   -0.0581455820
H        0.6133933649    4.4018564518    0.5974147647
H        1.0531141762    1.9839580354    0.5414016159
H       -4.0987238531   -2.1664728410    2.0766534555
H       -7.3379593070   -1.9412119637    3.5645928540
28   

C       -0.7403432915    0.1702159201    0.8629815319
C       -1.7560259393   -0.7710047837    1.0783453769
C       -1.7069697538    1.6167231949    2.5558136926
C       -3.8732862278    0.6455670734    3.6338154792
C       -2.7145162163    0.6690202520    2.7584786927
C       -0.6981524303    1.3762695774    1.5952451954
C       -2.7310549156   -0.5010326566    2.0304775250
C       -4.5359977470   -0.5478606947    3.4122954464
C       -5.8264074028   -0.9786581975    3.9521444807
C        1.2661749137    2.5700634128    2.5905810889
C       -0.1656480543    3.7135180743    0.8542516258
C        0.4085132176    2.3782525653    1.3370405080
N       -3.8337501009   -1.2567749725    2.4094785710
O       -6.2991767223   -0.6495571103    5.0249264598
O       -6.4499832867   -1.8964083409    3.1706963782
H        0.0191198229   -0.0394113927    0.1185796080
H       -1.7847882459   -1.6925714801    0.5109140585
H       -1.7130857816    2.5310413868    3.1361597930
H       -4.1854098156    1.4266876392    4.3168183338
H        0.6715119449    2.9760149159    3.4144635748
H        2.0902142974    3.2597714624    2.3829667916
H        1.6901138841    1.6108395049    2.9043438881
H       -0.8083549320    4.1641370870    1.6164523031
H       -0.7552776914    3.5609663205   -0.0553398918
H        0.6448027571    4.4128127971    0.6260714245
H        1.0581491871    1.9907763365    0.5450084279
H       -4.1430890504   -2.1354249261    2.0008033613
H       -7.2667925033   -2.1119995246    3.6494185185
28   

C       -0.7424714268    0.2164511349    0.8118374998
C       -1.7697009303   -0.7160281647    1.0097460298
C       -1.6911118105    1.6429872081    2.5316588380
C       -3.8616785239    0.6727133667    3.6019861071
C       -2.7097388498    0.7037896180    2.7175974469
C       -0.6855632287    1.4081557526    1.5662883826
C       -2.7413315383   -0.4518967116    1.9669431983
C       -4.5400916984   -0.5068694271    3.3555514157
C       -5.7976079818   -0.9650496595    3.9413779777
C        1.2833789715    2.5726328100    2.5907565914
C       -0.1223272671    3.7447705408    0.8522114623
C        0.4346226599    2.4000101263    1.3281675672
N       -3.8492572709   -1.2042866582    2.3372980802
O       -6.3343521811   -0.5044209199    4.9328328499
O       -6.3297481670   -2.0337478366    3.2951005195
H        0.0149212600    0.0109383736    0.0641891211
H       -1.8089694055   -1.6271694675    0.4263299426
H       -1.6851013029    2.5456400910    3.1300023607
H       -4.1531785379    1.4343717103    4.3155369754
H        0.6865202327    2.9792775748    3.4126788551
H        2.1168218287    3.2546294923    2.3955365448
H        1.6939351957    1.6064321058    2.9008726907
H       -0.7685494850    4.1938252092    1.6123988911
H       -0.7044421842    3.6058815285   -0.0643867043
H        0.6966402880    4.4386371750    0.6383693391
H        1.0875569842    2.0126965855    0.5387754573
H       -4.1548093598   -2.0879520958    1.9361813120
H       -7.1404132614   -2.2396210269    3.7884549289
28   

C       -0.7819192294    0.2344675808    0.7772701878
C       -1.8239803720   -0.6845614004    0.9601145005
C       -1.7179913016    1.6568754090    2.5073607258
C       -3.9008748495    0.7017331899    3.5659915564
C       -2.7512417717    0.7309735443    2.6785079293
C       -0.7109337090    1.4170242184    1.5448248759
C       -2.7965063356   -0.4160178396    1.9151794776
C       -4.5963085683   -0.4641253137    3.3025064698
C       -5.8215452716   -0.9477713425    3.9326791651
C        1.2683499278    2.5402064001    2.5962839360
C       -0.1047016825    3.7504413857    0.8577557516
C        0.4270732753    2.3927631615    1.3253659149
N       -3.9126727466   -1.1597563432    2.2783025032
O       -6.4421167964   -0.3834280649    4.8158495214
O       -6.2440795736   -2.1388345829    3.4365057640
H       -0.0231858937    0.0249660182    0.0320932648
H       -1.8728190201   -1.5897166199    0.3681659643
H       -1.7004001111    2.5519053240    3.1168279638
H       -4.1728552689    1.4494343829    4.3017116964
H        0.6716408727    2.9489502308    3.4172684304
H        2.1141393925    3.2104901756    2.4139889958
H        1.6609887106    1.5648010583    2.9007554748
H       -0.7502607276    4.2022144278    1.6169035928
H       -0.6811954531    3.6292562080   -0.0648793641
H        0.7267777855    4.4333422998    0.6573573398
H        1.0802635927    2.0023520321    0.5377149271
H       -4.2107457602   -2.0525585026    1.8918954349
H       -7.0526760259   -2.3389843648    3.9356192718
28   

C       -0.7994858203    0.2664479635    0.7399872377
C       -1.8510718534   -0.6446464007    0.9071997204
C       -1.7286485176    1.6759069308    2.4843467745
C       -3.9174267811    0.7216335631    3.5317246204
C       -2.7712554043    0.7577627155    2.6400639636
C       -0.7199113686    1.4382649712    1.5229991171
C       -2.8246558111   -0.3787879111    1.8619308136
C       -4.6235517380   -0.4336223820    3.2503700097
C       -5.8116275527   -0.9527619262    3.9237487212
C        1.2641648333    2.5281351217    2.6014420087
C       -0.0832864192    3.7718178271    0.8664826155
C        0.4304719592    2.4036075921    1.3229362364
N       -3.9442383735   -1.1209383557    2.2176001235
O       -6.5321557814   -0.3307616817    4.6834922571
O       -6.1005625723   -2.2349956651    3.5841061544
H       -0.0392458996    0.0584262930   -0.0040688837
H       -1.9052773799   -1.5426817539    0.3049629895
H       -1.7035774016    2.5618341954    3.1067112245
H       -4.1728503428    1.4516282706    4.2907483804
H        0.6663113453    2.9349629350    3.4225368802
H        2.1187045324    3.1907435954    2.4323281044
H        1.6437586911    1.5452638004    2.8983779327
H       -0.7297903481    4.2218838239    1.6258464527
H       -0.6540744424    3.6668011381   -0.0616587556
H        0.7568704176    4.4479480092    0.6798241837
H        1.0852753979    2.0146178204    0.5359201227
H       -4.2287021550   -2.0231244936    1.8430844884
H       -6.9065115585   -2.4450022840    4.0834093726
28   

C       -0.8611256680    0.2760554127    0.7108645734
C       -1.9256366310   -0.6223059515    0.8646568131
C       -1.7672087009    1.6694185075    2.4800405606
C       -3.9605413343    0.7219725115    3.5239744369
C       -2.8222700692    0.7634209911    2.6227900923
C       -0.7635480289    1.4334933907    1.5129690773
C       -2.8938764423   -0.3582939724    1.8253497202
C       -4.6860709524   -0.4163111872    3.2232415021
C       -5.8386814728   -0.9680592267    3.9368512601
C        1.2287627518    2.4897058177    2.6133011642
C       -0.0916871345    3.7614811095    0.8779496608
C        0.4016748648    2.3840786077    1.3285994790
N       -4.0195383074   -1.0938762369    2.1753901504
O       -6.6632245739   -0.3301812168    4.5660720401
O       -5.9841465487   -2.3054905573    3.7582707151
H       -0.1045279891    0.0689444592   -0.0371508391
H       -1.9928766016   -1.5100976738    0.2487060136
H       -1.7275864820    2.5435877244    3.1180646196
H       -4.1913957806    1.4317549456    4.3094542548
H        0.6317482001    2.9003490154    3.4330714668
H        2.0934183310    3.1414074320    2.4534083642
H        1.5929722959    1.5000618675    2.9069801107
H       -0.7389518243    4.2135321376    1.6355135580
H       -0.6563377461    3.6698218427   -0.0553514498
H        0.7579928944    4.4286982064    0.7027162920
H        1.0568981959    1.9916716516    0.5436289407
H       -4.2971016464   -2.0004191476    1.8067842465
H       -6.7867172840   -2.5335805789    4.2549465919
28   

C       -0.8958465859    0.3007638680    0.6803686788
C       -1.9754837952   -0.5815806950    0.8209270206
C       -1.7866150914    1.6909621831    2.4596800910
C       -3.9938153491    0.7631082391    3.4915516086
C       -2.8566075505    0.8006025712    2.5892880601
C       -0.7827548447    1.4483340342    1.4944979514
C       -2.9432836849   -0.3113771366    1.7803936028
C       -4.7373286877   -0.3591525146    3.1767644894
C       -5.8680229722   -0.9306431795    3.9184847065
C        1.2198023619    2.4620423603    2.6171822290
C       -0.0673853053    3.7691352898    0.8830849430
C        0.3998137348    2.3802880452    1.3260796425
N       -4.0786623995   -1.0355695567    2.1227355053
O       -6.8039965676   -0.3109462785    4.3891141453
O       -5.8585713918   -2.2868307160    3.9318186091
H       -0.1391236140    0.0883052770   -0.0660218448
H       -2.0537535289   -1.4627377270    0.1968104937
H       -1.7346277096    2.5571288193    3.1076346568
H       -4.2058421277    1.4601536709    4.2934058610
H        0.6244138643    2.8766208660    3.4361438013
H        2.0964702211    3.1001337029    2.4681302970
H        1.5652283529    1.4641757390    2.9057006783
H       -0.7126229237    4.2256573033    1.6397018998
H       -0.6267192823    3.6941717225   -0.0548928508
H        0.7944435105    4.4235417088    0.7192757054
H        1.0538883848    1.9830028432    0.5426037916
H       -4.3522591073   -1.9441799816    1.7571922130
H       -6.6627425374   -2.5341125631    4.4163216497
28   

C       -0.9225922851    0.3168758552    0.6560046070
C       -2.0107878786   -0.5566337962    0.7845874024
C       -1.8016129722    1.6928549933    2.4521365157
C       -4.0162755048    0.7696781885    3.4731167595
C       -2.8801349450    0.8110492788    2.5698182207
C       -0.7992611822    1.4528994247    1.4846408679
C       -2.9766712927   -0.2892332457    1.7467830580
C       -4.7699200906   -0.3396920674    3.1436219910
C       -5.8940696780   -0.9315941741    3.8932503350
C        1.2088813840    2.4380241528    2.6240778549
C       -0.0601148521    3.7716124293    0.8966661457
C        0.3928463676    2.3749207354    1.3293649161
N       -4.1176851977   -1.0084228697    2.0803651795
O       -6.9383429236   -0.3764327842    4.1773857444
O       -5.7256684284   -2.2544807539    4.1336345915
H       -0.1671026755    0.1063584807   -0.0921906089
H       -2.0965662062   -1.4293476641    0.1496934220
H       -1.7415012614    2.5498855866    3.1114084389
H       -4.2164474731    1.4540895095    4.2885773847
H        0.6146705521    2.8515142636    3.4444244392
H        2.0921283326    3.0689204951    2.4834496685
H        1.5437835396    1.4345405894    2.9054403304
H       -0.7046045183    4.2270068417    1.6546041142
H       -0.6161129990    3.7097431328   -0.0442506205
H        0.8081288423    4.4197683898    0.7421794655
H        1.0462960727    1.9783673740    0.5449897756
H       -4.3916575010   -1.9114018617    1.7025481071
H       -6.5352042092   -2.5280219382    4.5940991201
28   

C       -0.9246715326    0.2880035204    0.6435252301
C       -1.9992293244   -0.6038832105    0.7579240949
C       -1.8371803563    1.6343520827    2.4456388376
C       -4.0482813151    0.6699306682    3.4391282235
C       -2.9026447155    0.7347727193    2.5486995644
C       -0.8247638446    1.4184654752    1.4827289121
C       -2.9750538429   -0.3601530361    1.7162961993
C       -4.7772240244   -0.4476294908    3.0966810807
C       -5.9288305161   -1.0575531594    3.8076997447
C        1.1706255640    2.4090840063    2.6359560494
C       -0.1198623693    3.7598957196    0.9378420572
C        0.3529022226    2.3610665697    1.3418869486
N       -4.1080087842   -1.0988027650    2.0332420687
O       -7.0651516508   -0.6275459136    3.8273465415
O       -5.6286845161   -2.2533748688    4.3661914656
H       -0.1615135201    0.0962454909   -0.1019344045
H       -2.0672039606   -1.4720202339    0.1146587528
H       -1.7950299017    2.4869545000    3.1119834093
H       -4.2708922735    1.3503250442    4.2519091014
H        0.5715618497    2.7958664404    3.4657690089
H        2.0440947212    3.0559081401    2.5071698948
H        1.5209802839    1.4049403686    2.8953430163
H       -0.7673376541    4.1924916158    1.7064673522
H       -0.6782295828    3.7090241957   -0.0023290333
H        0.7394048409    4.4221239627    0.7931258169
H        1.0097686710    1.9895115360    0.5481700375
H       -4.3739766652   -1.9902519280    1.6246470340
H       -6.4573157593   -2.5562417209    4.7703678896
28   

C       -0.8217963144    0.2400544227    0.7080050002
C       -1.8624538154   -0.6893305101    0.8349896289
C       -1.7635745453    1.5568307277    2.5171150397
C       -3.9601724292    0.5444208695    3.4978403269
C       -2.7970237290    0.6217172487    2.6307389814
C       -0.7540431385    1.3752448670    1.5439517037
C       -2.8371041423   -0.4778499567    1.8021168238
C       -4.6512399243   -0.5942563146    3.1606607866
C       -5.9479945077   -1.1089150896    3.6923408626
C        1.2361654173    2.4194872789    2.6491035253
C       -0.1534839461    3.7538734060    1.0173712777
C        0.3808896617    2.3654029898    1.3805935241
N       -3.9578251361   -1.2386891666    2.1092315040
O       -7.0409112536   -0.8423953158    3.2349022983
O       -5.8117749811   -1.9273974093    4.7599938048
H       -0.0626374817    0.0766680635   -0.0482291783
H       -1.9100863976   -1.5565466086    0.1886555712
H       -1.7494538525    2.4160543717    3.1760686437
H       -4.2459139697    1.2614176013    4.2574945698
H        0.6479631547    2.7657303688    3.5042612409
H        2.0800051981    3.1018825678    2.5073005976
H        1.6318845726    1.4244337765    2.8762457227
H       -0.7882442913    4.1521740227    1.8145277552
H       -0.7414924843    3.6996484901    0.0956187851
H        0.6772426104    4.4478581209    0.8555768459
H        1.0243830298    2.0326867069    0.5591640731
H       -4.2438557800   -2.0939246258    1.6412130328
H       -6.7168096912   -2.1770593247    5.0048995161
28   

C       -0.7439215667    0.1572886315    0.7589796069
C       -1.7460346766   -0.8104589737    0.9106131060
C       -1.6912248285    1.4398047146    2.5891293088
C       -3.8513081735    0.3746548659    3.5871694686
C       -2.6873643537    0.4681734450    2.7247169932
C       -0.6992231872    1.2956438985    1.5923572842
C       -2.7061634515   -0.6339622948    1.8992613294
C       -4.5177212593   -0.7890634660    3.2618941724
C       -5.8931500848   -1.1982705473    3.6370293352
C        1.2926307628    2.4020260959    2.6248765573
C       -0.2159159200    3.7073324323    1.0779224603
C        0.3858894178    2.3342681371    1.3939620602
N       -3.8084691049   -1.4199686837    2.2124611912
O       -6.8444208643   -1.1888765178    2.8768579809
O       -6.0403172455   -1.4929564415    4.9485452352
H        0.0002032528    0.0239546088   -0.0178034437
H       -1.7804586485   -1.6759007952    0.2610633322
H       -1.6985578847    2.3030945399    3.2428452672
H       -4.1830518869    1.1176674570    4.3018655048
H        0.7278033692    2.7086572752    3.5104340343
H        2.1011790585    3.1209404414    2.4599431988
H        1.7374187164    1.4202231959    2.8158933737
H       -0.8267147215    4.0713617287    1.9093962087
H       -0.8436977770    3.6449493695    0.1833088393
H        0.5803559818    4.4342310198    0.8894012332
H        1.0041590227    2.0401078884    0.5391370837
H       -4.1146468152   -2.2441536660    1.7024267770
H       -6.9828554662   -1.6956449081    5.0585046841
28   

C       -0.7579427180    0.1641618905    0.7396942802
C       -1.7583573538   -0.8059148441    0.8876168814
C       -1.6846073760    1.4183048694    2.5998625054
C       -3.8344114143    0.3388104427    3.6042226102
C       -2.6790880119    0.4445105674    2.7316996464
C       -0.7040774150    1.2897777608    1.5897041013
C       -2.7072947329   -0.6447536243    1.8895312389
C       -4.5059452877   -0.8219427994    3.2684075845
C       -5.8724523689   -1.2385256555    3.6315096434
C        1.2965763489    2.3858082213    2.6170231009
C       -0.2290758709    3.7081771184    1.1016532774
C        0.3779032448    2.3322020322    1.3942897599
N       -3.8073509329   -1.4343796124    2.2013727105
O       -6.7562650720   -1.4747885331    2.8241463212
O       -6.1182749348   -1.2205578466    4.9616025430
H       -0.0227044319    0.0429127535   -0.0474559777
H       -1.8004687858   -1.6612171514    0.2251859617
H       -1.6849394554    2.2717169752    3.2664742671
H       -4.1605201958    1.0714984708    4.3322044300
H        0.7401535929    2.6806553542    3.5118491904
H        2.1025571952    3.1078365943    2.4531283868
H        1.7444330917    1.4023062512    2.7913738298
H       -0.8324668004    4.0604141905    1.9435592032
H       -0.8653630748    3.6561708924    0.2123958131
H        0.5641610724    4.4388124427    0.9148014889
H        0.9882079159    2.0498660546    0.5298104404
H       -4.1307756829   -2.2420584662    1.6748457154
H       -7.0537193443   -1.4634492404    5.0491608932
28   

C       -0.7797361878    0.1994902186    0.7074142542
C       -1.7853588451   -0.7663962274    0.8463639290
C       -1.6867331749    1.4299933335    2.5930849610
C       -3.8314042601    0.3422325033    3.6013901004
C       -2.6862608856    0.4602414890    2.7164793511
C       -0.7133573752    1.3111145849    1.5747654958
C       -2.7266022445   -0.6152366603    1.8569280280
C       -4.5104849702   -0.8114995654    3.2529426883
C       -5.8466392577   -1.2737979431    3.6447136256
C        1.2973671833    2.3808109287    2.6116571187
C       -0.2233626749    3.7313702561    1.1161781953
C        0.3755532173    2.3482471207    1.3904104559
N       -3.8258800157   -1.4060717567    2.1674960775
O       -6.6656075215   -1.7429806067    2.8685574269
O       -6.1574045586   -1.0353107402    4.9399898699
H       -0.0496274047    0.0854087625   -0.0855599527
H       -1.8363528955   -1.6118513064    0.1719948868
H       -1.6763815435    2.2719576473    3.2740301298
H       -4.1416065582    1.0567202481    4.3541453628
H        0.7452196705    2.6687861600    3.5113450162
H        2.1079429587    3.0991968329    2.4545323360
H        1.7388972049    1.3922638529    2.7731809841
H       -0.8231941961    4.0764323480    1.9635920695
H       -0.8615304642    3.6942853351    0.2275222969
H        0.5740163457    4.4594072620    0.9370346270
H        0.9822699793    2.0725578198    0.5212717470
H       -4.1575860863   -2.2098142786    1.6391469986
H       -7.0704167507   -1.3480551448    5.0422301769
28   

C       -0.8191415222    0.2272801084    0.6715783395
C       -1.8334236221   -0.7304158203    0.8032392288
C       -1.7038805239    1.4415346853    2.5784259866
C       -3.8450890314    0.3524985424    3.5947048168
C       -2.7118433912    0.4796943094    2.6951715907
C       -0.7369676780    1.3263344189    1.5534605316
C       -2.7672354711   -0.5837424921    1.8212127232
C       -4.5345213537   -0.7925578969    3.2365307664
C       -5.8312240936   -1.3082785185    3.6743937770
C        1.2859693103    2.3634037285    2.6014530931
C       -0.2198967257    3.7442834199    1.1185290096
C        0.3639796323    2.3524590776    1.3797405071
N       -3.8663927078   -1.3734409945    2.1341201407
O       -6.5694137211   -1.9889497970    2.9756171731
O       -6.2046957215   -0.9014997018    4.9101979863
H       -0.0935721533    0.1156999496   -0.1259039434
H       -1.8951549361   -1.5677113157    0.1196287695
H       -1.6799574934    2.2729170148    3.2719241715
H       -4.1330555119    1.0473619728    4.3743039218
H        0.7373080572    2.6497573277    3.5037755676
H        2.1048206437    3.0737583918    2.4508279199
H        1.7161431287    1.3684652839    2.7542123352
H       -0.8168987921    4.0870778812    1.9688692754
H       -0.8576479490    3.7224099665    0.2290765609
H        0.5853065644    4.4655149250    0.9470882463
H        0.9680727220    2.0781557674    0.5083380818
H       -4.1998179182   -2.1830243583    1.6150624458
H       -7.0835709795   -1.2893496474    5.0484059712
28   

C       -0.8908738929    0.2300982003    0.6208643317
C       -1.9188703263   -0.7134178990    0.7474848059
C       -1.7422719522    1.4321053525    2.5507069658
C       -3.8808115058    0.3506523709    3.5824137867
C       -2.7634873303    0.4838180337    2.6633757776
C       -0.7848733169    1.3155521670    1.5169111052
C       -2.8420917865   -0.5664239487    1.7749216676
C       -4.5873763992   -0.7815025797    3.2157750104
C       -5.8371037687   -1.3473621823    3.7156515751
C        1.2532111200    2.3147249810    2.5758927623
C       -0.2276559396    3.7250714616    1.0953546297
C        0.3339326141    2.3235394102    1.3518062064
N       -3.9432577670   -1.3506572613    2.0936544599
O       -6.4818163694   -2.2064048139    3.1287967693
O       -6.2681298323   -0.8125059173    4.8822378582
H       -0.1720631007    0.1169866380   -0.1825003058
H       -1.9972025774   -1.5420422286    0.0550525558
H       -1.6982888491    2.2519859176    3.2568094992
H       -4.1368771559    1.0229423053    4.3924190232
H        0.7078636024    2.6074813007    3.4781429095
H        2.0842824579    3.0116611514    2.4295162200
H        1.6663333252    1.3122241402    2.7263191529
H       -0.8229342842    4.0720465544    1.9452359922
H       -0.8622527237    3.7169762470    0.2034204707
H        0.5889698248    4.4348956347    0.9305522326
H        0.9361844410    2.0432377636    0.4810377393
H       -4.2759737967   -2.1706018159    1.5901488379
H       -7.1027077082   -1.2687506034    5.0754411505
28   

C       -0.9242980959    0.2957630889    0.5687670742
C       -1.9643004373   -0.6367168121    0.6774076241
C       -1.7570471322    1.4679612692    2.5249650828
C       -3.8931746733    0.3776671001    3.5531632264
C       -2.7894559015    0.5299501047    2.6205540447
C       -0.8026223880    1.3604746114    1.4874098384
C       -2.8834675567   -0.4997280333    1.7098120274
C       -4.6110752842   -0.7411827637    3.1681267914
C       -5.8023309394   -1.3745190379    3.7238753191
C        1.2434415651    2.3144846444    2.5756825433
C       -0.2071454290    3.7656575356    1.1045746800
C        0.3328211017    2.3532170775    1.3453707331
N       -3.9849729778   -1.2852652520    2.0236562963
O       -6.3227331952   -2.3789757096    3.2558742072
O       -6.3065837554   -0.7606171316    4.8201214042
H       -0.2068649051    0.1888042915   -0.2366681277
H       -2.0524081724   -1.4517030521   -0.0298828636
H       -1.6990275655    2.2699956259    3.2502941733
H       -4.1200567071    1.0162631239    4.3983812714
H        0.6968253097    2.6040322017    3.4781785618
H        2.0859930412    3.0005028631    2.4440077312
H        1.6404525245    1.3040192522    2.7159389405
H       -0.8047042814    4.1081941979    1.9546793364
H       -0.8345245800    3.7787627990    0.2076181612
H        0.6204687242    4.4663502975    0.9564574439
H        0.9375650160    2.0760032357    0.4753415343
H       -4.3057215122   -2.1159645215    1.5298940280
H       -7.0822978309   -1.2878550963    5.0697343728
