29   

C        1.8452233296   -3.6859425271   -0.9187651609
C        0.8848365218   -3.5530002565    0.0701338086
C        5.3029959369    1.3381229358    0.0192985926
C        5.9503956606    1.1948141013   -1.1981195704
C        2.7224258343   -2.6349551619   -1.1765843625
C        0.7894939289   -2.3548797792    0.7718727814
C        4.2202165794    0.5032626601    0.2715061334
C        5.5085082856    0.2260835119   -2.0997744658
C        2.6735102619   -1.4065386280   -0.4628430914
C        1.6469081890   -1.2660116751    0.5149330792
C        3.7831421112   -0.4293819808   -0.6924102924
C        1.1423131350    1.1626295277    0.3374937933
C        0.8134454126   -0.0250761181    2.5284656320
N        4.4623654186   -0.5743732244   -1.8512594762
N        1.3596322840   -0.0422221924    1.1606562177
H        1.9255407936   -4.6088070363   -1.4819010111
H        0.2020438900   -4.3679118878    0.2818322757
H        5.6366663938    2.0624683511    0.7550542261
H        6.8020039266    1.8136565500   -1.4506891520
H        3.4797252745   -2.8086429886   -1.9328698209
H       -0.0035354131   -2.2640888341    1.5010488675
H        3.7372699827    0.5600036729    1.2359228244
H        6.0337553680    0.1127452848   -3.0408761136
H        1.4035715769    0.9801924377   -0.7093326327
H        1.7522278488    1.9917918360    0.7082918136
H        0.0872195119    1.4515874292    0.3702712592
H        1.0861648964    0.9080746893    3.0308975708
H        1.2252085795   -0.8526482072    3.1149298800
H       -0.2776322384   -0.1103898472    2.5037245451
29   

C        1.8976236797   -3.7418112843   -0.8424185067
C        0.8965256959   -3.5797020074    0.1043807323
C        5.3461013037    1.2351628135    0.1032203134
C        5.8501504261    1.2613567056   -1.1895325565
C        2.7821042631   -2.6957707410   -1.0971300896
C        0.7706769414   -2.3610931237    0.7696276441
C        4.3027267415    0.3543306259    0.3634790231
C        5.3070203849    0.4139198008   -2.1583256871
C        2.6941234735   -1.4565919458   -0.4191014052
C        1.6369080243   -1.2790541895    0.5145080442
C        3.7783665851   -0.4592762850   -0.6577745888
C        1.2515752271    1.1741087964    0.2981881796
C        0.7385737474    0.0136092745    2.4668575863
N        4.3001609627   -0.4334765302   -1.9010752518
N        1.3606837846   -0.0375518109    1.1330089487
H        1.9998399607   -4.6803250440   -1.3752895670
H        0.2066990063   -4.3896014490    0.3124815270
H        5.7543211865    1.8691149547    0.8834908552
H        6.6644285615    1.9239958643   -1.4539003085
H        3.5734382901   -2.8626984869   -1.8199682274
H       -0.0472889268   -2.2520618739    1.4680807459
H        3.8962794096    0.2792843726    1.3634585825
H        5.7173597924    0.4393672573   -3.1610136157
H        1.4709543002    0.9544859414   -0.7511008573
H        1.9463216928    1.9428252009    0.6490589659
H        0.2310742855    1.5669965374    0.3429041823
H        0.9866918218    0.9575505078    2.9619513683
H        1.1139773371   -0.8007224620    3.0947465434
H       -0.3497885963   -0.0681353355    2.3828659448
29   

C        1.9323778847   -3.8049251266   -0.7679771309
C        0.8973156860   -3.6078659838    0.1380807946
C        5.4024381156    1.1178169051    0.1568465486
C        5.7538770400    1.3157012700   -1.1719147281
C        2.8303328190   -2.7701030693   -1.0234772162
C        0.7522299362   -2.3679877285    0.7630144589
C        4.4013519362    0.1898624919    0.4187230868
C        5.1030867823    0.5900265353   -2.1741263260
C        2.7177184600   -1.5199625320   -0.3814660989
C        1.6331032205   -1.2986721885    0.5061115081
C        3.7813441371   -0.5063832564   -0.6318730151
C        1.3402396882    1.1654793993    0.2415848988
C        0.6977618354    0.0518294124    2.3999475214
N        4.1380335550   -0.3043151350   -1.9143957323
N        1.3701986423   -0.0390571519    1.0932340348
H        2.0462627213   -4.7590718652   -1.2697900403
H        0.1960649301   -4.4080576493    0.3455596376
H        5.8891519328    1.6618545318    0.9596626469
H        6.5276443052    2.0235354891   -1.4408012597
H        3.6454535009   -2.9395810987   -1.7189837310
H       -0.0872958391   -2.2340784990    1.4309358790
H        4.0853094002   -0.0099378213    1.4348402949
H        5.3904633703    0.7549000687   -3.2059381127
H        1.5196044072    0.9134763215   -0.8080592333
H        2.0979886878    1.8834943115    0.5682767736
H        0.3538950032    1.6364919630    0.2962231733
H        0.9386861177    1.0045319637    2.8817267254
H        1.0388053527   -0.7511549527    3.0611332293
H       -0.3874910323   -0.0187202123    2.2757044519
29   

C        1.9521187556   -3.8358071404   -0.6827135815
C        0.8841137401   -3.5979699701    0.1761818326
C        5.5059613642    0.9887176913    0.1974812709
C        5.6985272049    1.3633758845   -1.1261354686
C        2.8682999706   -2.8171749052   -0.9402863415
C        0.7262871781   -2.3357131897    0.7540141617
C        4.5333408754    0.0287053597    0.4511352995
C        4.9220548198    0.7770832194   -2.1306922287
C        2.7372984111   -1.5498919047   -0.3437834735
C        1.6264035381   -1.2835485427    0.4945676865
C        3.7936252875   -0.5290809385   -0.6023128492
C        1.4093180582    1.1837246409    0.1769343483
C        0.6682223982    0.1254376937    2.3322039594
N        3.9851715762   -0.1488208023   -1.8783368177
N        1.3749869312   -0.0066500531    1.0475495213
H        2.0744293814   -4.8074379028   -1.1476374950
H        0.1678892989   -4.3847227727    0.3839137539
H        6.0875960865    1.4268895552    1.0019175467
H        6.4417619839    2.1053173642   -1.3891542858
H        3.7055525617   -3.0062493452   -1.6034740336
H       -0.1341892782   -2.1717679753    1.3877685442
H        4.3247565274   -0.2994040750    1.4615737208
H        5.0829522664    1.0826801527   -3.1578816089
H        1.5346180152    0.9010265789   -0.8726693976
H        2.2278383184    1.8479483723    0.4686613684
H        0.4627006261    1.7278859742    0.2505617629
H        0.9116931920    1.0850626840    2.7987779653
H        0.9779008740   -0.6671414387    3.0208149098
H       -0.4141759713    0.0693565791    2.1793534846
29   

C        1.9991514438   -3.8552329861   -0.6173065080
C        0.8983973794   -3.5981278491    0.1942955747
C        5.6666834661    0.8111548900    0.1971944864
C        5.6939050779    1.3925562916   -1.0640869454
C        2.9155261075   -2.8370061519   -0.8771660263
C        0.7113022655   -2.3192673998    0.7259606374
C        4.6976418632   -0.1580435405    0.4294025694
C        4.7636760276    0.9938578736   -2.0292311369
C        2.7479762081   -1.5525159347   -0.3314225761
C        1.6123390347   -1.2690391655    0.4639839547
C        3.8007642451   -0.5217667704   -0.5846063487
C        1.3735860141    1.1850483938    0.0906188954
C        0.6378869558    0.1680099380    2.2684200583
N        3.8312553497    0.0582504442   -1.7972424269
N        1.3486094837    0.0160024311    0.9884329288
H        2.1456802715   -4.8411343844   -1.0436010367
H        0.1814221019   -4.3838818421    0.4032385322
H        6.3695525873    1.1015113022    0.9712150195
H        6.4252951065    2.1526034018   -1.3078841725
H        3.7775865542   -3.0387081267   -1.5035231687
H       -0.1688765458   -2.1410941198    1.3281632653
H        4.6138633121   -0.6417798106    1.3940970426
H        4.7959912912    1.4598596701   -3.0070748445
H        1.4187983639    0.8718116867   -0.9566788844
H        2.2334572986    1.8226577791    0.3146928037
H        0.4546593930    1.7675137438    0.2082165395
H        0.8758245870    1.1371366178    2.7179227982
H        0.9498867575   -0.6104785833    2.9718926647
H       -0.4438227613    0.1036421054    2.1142292793
29   

C        2.0277115189   -3.8399206177   -0.5268827790
C        0.8937516271   -3.5635986432    0.2308343003
C        5.8732923692    0.5715718394    0.1201009158
C        5.7549460592    1.3688908703   -1.0109119056
C        2.9431821748   -2.8220562352   -0.7921198167
C        0.6772197838   -2.2681606314    0.7079520494
C        4.8744631312   -0.3696669713    0.3415083665
C        4.6598668917    1.1994908162   -1.8636903438
C        2.7384016235   -1.5168157545   -0.3114322746
C        1.5784643829   -1.2201666268    0.4409067150
C        3.8010539589   -0.4901630182   -0.5520688742
C        1.2019758146    1.1923467807   -0.0190346584
C        0.6259405206    0.2381516872    2.2327677908
N        3.7004877330    0.2889410562   -1.6428202385
N        1.2929232197    0.0708944474    0.9317301410
H        2.2007945277   -4.8406453168   -0.9061327258
H        0.1766884743   -4.3482293655    0.4436866893
H        6.7087949549    0.6782241756    0.8042078996
H        6.4999939867    2.1203090035   -1.2395363540
H        3.8320682710   -3.0408688709   -1.3734631660
H       -0.2223960354   -2.0736301966    1.2756868631
H        4.9052936922   -1.0180958875    1.2075354584
H        4.5817338299    1.8296011533   -2.7418793091
H        1.2106402507    0.8287053132   -1.0509465698
H        2.0331033871    1.8878148607    0.1275990043
H        0.2577226074    1.7273697311    0.1208441642
H        0.8772595982    1.2136929957    2.6605176953
H        0.9627738047   -0.5309793313    2.9350547058
H       -0.4602110236    0.1687679826    2.1166400234
29   

C        2.0655836235   -3.8299075603   -0.4288453468
C        0.8907955905   -3.5332584012    0.2546271966
C        6.0386794180    0.3698760968   -0.0107284445
C        5.8141100885    1.3436557074   -0.9746672672
C        2.9872170726   -2.8155104537   -0.6864011275
C        0.6443294715   -2.2226330346    0.6703158630
C        5.0198560398   -0.5489546542    0.2140198697
C        4.6004175881    1.3608105134   -1.6681903242
C        2.7485589061   -1.4906342462   -0.2763564969
C        1.5531230807   -1.1799265895    0.4123991245
C        3.8190005471   -0.4725845785   -0.5076524980
C        0.9829091481    1.1656677830   -0.1352991633
C        0.6352855002    0.2978677005    2.1948571349
N        3.6235733801    0.4697050989   -1.4463316166
N        1.2369795934    0.1153469568    0.8648404093
H        2.2650689081   -4.8437161341   -0.7569872920
H        0.1677161626   -4.3142396060    0.4604446673
H        6.9693338486    0.3273422946    0.5456047099
H        6.5674443949    2.0889532369   -1.1959364524
H        3.9059803019   -3.0532482998   -1.2110618497
H       -0.2810139277   -2.0086971466    1.1879625609
H        5.1345152629   -1.3299432230    0.9544430848
H        4.4411158554    2.1253294633   -2.4195037526
H        1.0380499052    0.7588826570   -1.1497648494
H        1.7117035212    1.9746861049   -0.0327098185
H       -0.0247850918    1.5722431841   -0.0059972879
H        0.9103172506    1.2769711718    2.5990488838
H        1.0023408384   -0.4662074376    2.8874648489
H       -0.4553910813    0.2293130002    2.1331661052
29   

C        0.8204679244   -2.5556807547   -2.1783462395
C       -0.1010281678   -2.6036775436   -1.1392838382
C        5.8823535362    0.0032284707   -1.0072330314
C        5.6896692329    1.3660165431   -0.8181642882
C        1.9867187313   -1.8081045915   -2.0286313349
C        0.1595980016   -1.9205233646    0.0504596957
C        4.7517995638   -0.8062006804   -1.0042051387
C        4.3948340622    1.8642428386   -0.6404735716
C        2.2570034697   -1.0996067603   -0.8417958165
C        1.3395936364   -1.1733106599    0.2405221439
C        3.4803988700   -0.2467082653   -0.8034165243
C        0.4460942869   -0.1260531433    2.3380884458
C        2.9044939395   -0.6173286041    2.1362457904
N        3.3098066464    1.0782095624   -0.6385770791
N        1.5704318606   -0.5963330211    1.5128819028
H        0.6273348258   -3.0861594813   -3.1038429899
H       -1.0143651933   -3.1774810672   -1.2472575434
H        6.8739484074   -0.4127609450   -1.1534189818
H        6.5297110342    2.0489472007   -0.8109986473
H        2.6838949408   -1.7505879216   -2.8570770383
H       -0.5617823422   -2.0070311913    0.8510440377
H        4.8386648704   -1.8752949088   -1.1487683299
H        4.2611090895    2.9304018020   -0.4998394485
H       -0.3372161165    0.3039976922    1.7057997894
H        0.7826502959    0.6559724349    3.0258335659
H        0.0293519937   -0.9542220364    2.9197750881
H        3.3401369027    0.3859303230    2.1431679674
H        3.5755607725   -1.3001956268    1.6077353242
H        2.8267751254   -0.9813123785    3.1652608957
29   

C        0.9611667645   -2.6128875409   -2.1172832958
C       -0.0102822563   -2.6103508570   -1.1255574651
C        5.9462028985    0.0614463020   -1.1272119890
C        5.7670957520    1.3805233085   -0.7321557906
C        2.1302638635   -1.8772435160   -1.9371131648
C        0.2040964975   -1.8910180741    0.0506736540
C        4.8262023379   -0.7627141173   -1.1259352893
C        4.4956215286    1.8225948718   -0.3555406166
C        2.3613215605   -1.1280225333   -0.7636400196
C        1.3849277220   -1.1540145169    0.2749929348
C        3.5733740465   -0.2628370353   -0.7303870079
C        0.4083676610   -0.0627562041    2.3171794299
C        2.8683034705   -0.5756916747    2.2299597398
N        3.4211507261    1.0226625513   -0.3550344380
N        1.5615120487   -0.5593024964    1.5494464560
H        0.8031419866   -3.1707403913   -3.0333278415
H       -0.9270656631   -3.1732346514   -1.2589002055
H        6.9206230724   -0.3114191570   -1.4257934351
H        6.5998910106    2.0720591949   -0.7139077441
H        2.8549540597   -1.8571909807   -2.7430765926
H       -0.5564922285   -1.9429244978    0.8171562835
H        4.9141601140   -1.8001095526   -1.4209036583
H        4.3713309304    2.8553169706   -0.0516027290
H       -0.3489723862    0.3516975381    1.6443009048
H        0.7221134573    0.7372858761    2.9949224910
H       -0.0328646363   -0.8731757136    2.9058319179
H        3.3096057481    0.4253676976    2.2385621149
H        3.5570220306   -1.2704680763    1.7402411372
H        2.7460427957   -0.9154096386    3.2629885523
29   

C        1.0242146209   -2.7125383718   -2.0523547986
C        0.0181865426   -2.6469571656   -1.1005575742
C        5.9337162460    0.1223500003   -1.2986084788
C        5.7821676608    1.3842220777   -0.7424020414
C        2.1987702881   -1.9877360045   -1.8652193916
C        0.2047793413   -1.8774246710    0.0462713064
C        4.8281771793   -0.7211890949   -1.2815602155
C        4.5522941073    1.7503276349   -0.1915577855
C        2.4117910602   -1.1865116099   -0.7181655487
C        1.3902951325   -1.1512207640    0.2807733150
C        3.6066856804   -0.2966030312   -0.7211571715
C        0.3676231330    0.0320404556    2.2495966134
C        2.7948122014   -0.6251078059    2.2995851497
N        3.4927001344    0.9315758963   -0.1771672848
N        1.5305691132   -0.5334774699    1.5479538052
H        0.8872139228   -3.3075273075   -2.9482264602
H       -0.9038330003   -3.1994259394   -1.2412307381
H        6.8785013700   -0.1950753142   -1.7278842854
H        6.6052357729    2.0873588734   -0.7277745771
H        2.9318732868   -2.0158374617   -2.6622106504
H       -0.5822854708   -1.8834298363    0.7873523219
H        4.9173293328   -1.7186850508   -1.6896139927
H        4.4484711659    2.7376680295    0.2428410876
H       -0.3479042247    0.4458163114    1.5321241316
H        0.6844905265    0.8456216619    2.9094516270
H       -0.1251501886   -0.7397037439    2.8493204262
H        3.2543564795    0.3629781993    2.3981257543
H        3.4996556513   -1.2986009902    1.8029480063
H        2.6058531134   -1.0276526002    3.2993735375
29   

C        1.0751968625   -2.7985034329   -1.9570082566
C        0.0433866383   -2.6735619161   -1.0428384524
C        5.8975175003    0.2212734570   -1.4557996104
C        5.7994423649    1.4059687064   -0.7440192357
C        2.2529187005   -2.0782119217   -1.7736044311
C        0.2086660998   -1.8505321897    0.0668467239
C        4.8055832215   -0.6398680072   -1.4232639656
C        4.6357236982    1.6775905076   -0.0253983869
C        2.4550287211   -1.2195321700   -0.6608442599
C        1.3962359170   -1.1277420378    0.3014249714
C        3.6355797977   -0.3075149943   -0.7014551603
C        0.3299902930    0.1644690104    2.1773461547
C        2.7006414031   -0.6503444687    2.3889597449
N        3.5903264434    0.8419674762    0.0017265140
N        1.4978831250   -0.4777441728    1.5550223760
H        0.9552825894   -3.4349109483   -2.8265246237
H       -0.8816377350   -3.2211674704   -1.1828684410
H        6.7948841266   -0.0279375892   -2.0128170829
H        6.6148218730    2.1180346397   -0.7330245150
H        2.9844272456   -2.1634532362   -2.5655504880
H       -0.5984047983   -1.8125696591    0.7851784470
H        4.8884077747   -1.5801563019   -1.9476363131
H        4.5727355574    2.6026216933    0.5355446331
H       -0.3392765968    0.5669698537    1.4105914834
H        0.6513876574    0.9973136633    2.8103267523
H       -0.2167795805   -0.5581616768    2.7913851713
H        3.1805326806    0.3161113138    2.5710972713
H        3.4217768790   -1.3159225775    1.9048479181
H        2.4286384966   -1.0977125407    3.3497060540
29   

C        1.1245076044   -2.8972431558   -1.8586666623
C        0.0825582178   -2.7387730070   -0.9648155940
C        5.8006965230    0.3909853469   -1.6592767197
C        5.8307639907    1.4145393424   -0.7290113828
C        2.2945540685   -2.1589673566   -1.6989525010
C        0.2334138515   -1.8663624482    0.1056963410
C        4.7151615963   -0.4789830029   -1.6275947107
C        4.7932510885    1.5245924070    0.1924907034
C        2.4829041409   -1.2337196012   -0.6328496113
C        1.4110289171   -1.1211462592    0.3171637431
C        3.6679133062   -0.3207191881   -0.6821049408
C        0.3025004534    0.3176525476    2.0512811681
C        2.5593213421   -0.7047257367    2.4913645643
N        3.7549422636    0.6810903444    0.2162149382
N        1.4684918743   -0.4203819412    1.5427628277
H        1.0221333944   -3.5818157976   -2.6931814858
H       -0.8358854844   -3.3016619390   -1.0864684343
H        6.5965846373    0.2706564303   -2.3870997443
H        6.6475705875    2.1246418738   -0.7065049262
H        3.0282636356   -2.3175677658   -2.4737208795
H       -0.5779233853   -1.8029673036    0.8177844150
H        4.7259605222   -1.2746461653   -2.3534584495
H        4.8257707725    2.3251661916    0.9220870597
H       -0.3254593888    0.6602338927    1.2229424273
H        0.6310923167    1.1989946120    2.6104275102
H       -0.2921502516   -0.3227907912    2.7104511512
H        3.0632573956    0.2230045838    2.7795942527
H        3.2983636608   -1.3774933050    2.0450804832
H        2.1610385170   -1.1888358091    3.3880582352
29   

C        1.2185383017   -2.9899739713   -1.7888563964
C        0.2062773325   -2.8682818423   -0.8540214880
C        5.6132454836    0.6394932312   -1.9216758230
C        5.9287289082    1.3395600979   -0.7703903724
C        2.3506686805   -2.1840670885   -1.6920659073
C        0.3494851460   -1.9577444550    0.1867602219
C        4.5030851344   -0.1978871060   -1.8817856409
C        5.1296858268    1.1841471137    0.3597565397
C        2.5151548490   -1.2122444079   -0.6666934756
C        1.4848189032   -1.1357076651    0.3225339213
C        3.7300446921   -0.3439813381   -0.7017562832
C        0.3314571715    0.5094968264    1.8001267174
C        2.4075631839   -0.6805069533    2.5713587018
N        4.0663923503    0.3719312448    0.3884766887
N        1.4994772185   -0.3203790098    1.4698542124
H        1.1311694413   -3.7129847108   -2.5920501847
H       -0.6803281990   -3.4885365794   -0.9203430070
H        6.2026408335    0.7498923810   -2.8261055139
H        6.7780054499    2.0101459258   -0.7402896200
H        3.1072409941   -2.3569970780   -2.4440593957
H       -0.4344725814   -1.9046431769    0.9304630208
H        4.2417659183   -0.7024312981   -2.7985045878
H        5.3775624412    1.7427581476    1.2546192342
H       -0.2640608815    0.7082598195    0.9034904709
H        0.6584813557    1.4700799658    2.2093869008
H       -0.2992677988    0.0004067379    2.5358767128
H        2.9351940960    0.2079221642    2.9315968853
H        3.1508464619   -1.4111363622    2.2365889719
H        1.8430982758   -1.1245394605    3.3968128251
29   

C        1.2679288141   -3.0448629779   -1.7394479207
C        0.2713158065   -2.9560985399   -0.7796430501
C        5.4248363572    0.8461537965   -1.9373900417
C        5.9274892605    1.2956899244   -0.7266361393
C        2.3735077051   -2.1993130662   -1.6668900857
C        0.3965651456   -2.0283023919    0.2516267564
C        4.3101930232    0.0154988117   -1.8983442289
C        5.3041982308    0.9073235521    0.4596578159
C        2.5180303704   -1.2332908567   -0.6401466605
C        1.5030560572   -1.1656709845    0.3552134321
C        3.7231937656   -0.3583729363   -0.6691720454
C        0.3249216646    0.5796333843    1.6708797339
C        2.3093789347   -0.6316407126    2.6227200519
N        4.2338275198    0.1031775503    0.4870872721
N        1.4955302099   -0.2812276628    1.4473158479
H        1.1894902247   -3.7726125043   -2.5392204792
H       -0.5931292697   -3.6086665446   -0.8249768665
H        5.8766316048    1.1392842532   -2.8794353891
H        6.7906581151    1.9479726944   -0.6902294740
H        3.1386988432   -2.3211964216   -2.4235667561
H       -0.3788763570   -1.9817546103    1.0048838032
H        3.8801042741   -0.3179507735   -2.8321722399
H        5.7024030587    1.2693234617    1.4002236689
H       -0.2276989605    0.7249185219    0.7372114308
H        0.6458701205    1.5614869702    2.0316330979
H       -0.3453563365    0.1259723526    2.4078795351
H        2.8649675404    0.2439755453    2.9716780026
H        3.0273168532   -1.4200050059    2.3748754520
H        1.6692643770   -0.9992608413    3.4304450645
29   

C        1.3276539096   -3.1265608264   -1.6684374897
C        0.3213925220   -3.0288392474   -0.7159204681
C        5.2665341158    1.0029323921   -1.9004759396
C        5.9152768877    1.2700690945   -0.7036368825
C        2.4215730971   -2.2641603748   -1.6068046374
C        0.4208954391   -2.0707812441    0.2929779967
C        4.1583415274    0.1646055085   -1.8514543098
C        5.4403757823    0.6975752380    0.4786816479
C        2.5402204025   -1.2863573189   -0.5942492660
C        1.5156377166   -1.1928646973    0.3818408038
C        3.7219663395   -0.3814695332   -0.6292212033
C        0.3147717828    0.5972577694    1.6075824672
C        2.3034728698   -0.5494120199    2.6253320075
N        4.3741048070   -0.1126235608    0.5161220552
N        1.4987064668   -0.2557628221    1.4282812079
H        1.2637268444   -3.8710584457   -2.4539189489
H       -0.5335028260   -3.6943659754   -0.7530584287
H        5.6059929970    1.4351119869   -2.8361267504
H        6.7822371659    1.9176710706   -0.6742813726
H        3.1991942778   -2.3655444564   -2.3552088400
H       -0.3640995957   -2.0099665262    1.0351996736
H        3.6115845024   -0.0564791761   -2.7583786437
H        5.9566447044    0.9146838800    1.4063775856
H       -0.2156182777    0.7195224537    0.6578429873
H        0.6176702491    1.5891271396    1.9565386985
H       -0.3689360476    0.1517260871    2.3371120897
H        2.8951126127    0.3265088244    2.9074350121
H        2.9860712642   -1.3845426435    2.4383608872
H        1.6526372279   -0.8295745316    3.4592130381
29   

C        1.3641929430   -3.1954182706   -1.6151532605
C        0.3261938264   -3.0600918339   -0.6998193443
C        5.1287156260    1.1360097730   -1.8149923819
C        5.9125744776    1.2292857957   -0.6732063024
C        2.4617547936   -2.3379217355   -1.5440611949
C        0.3962934669   -2.0691189327    0.2811588643
C        4.0227782653    0.2952331813   -1.7604499553
C        5.5693172875    0.4880543976    0.4608969015
C        2.5493869017   -1.3370278212   -0.5557260853
C        1.4956787001   -1.1978159683    0.3785327543
C        3.7216987453   -0.4154451732   -0.5864324380
C        0.2632204293    0.5977925953    1.5701379899
C        2.3254984331   -0.4271248257    2.5694320797
N        4.5030828741   -0.3228282442    0.5039589801
N        1.4718341933   -0.2199657192    1.3880401491
H        1.3202983184   -3.9625349845   -2.3799488999
H       -0.5316334020   -3.7213086431   -0.7452818901
H        5.3666815996    1.6977640602   -2.7123433624
H        6.7859571198    1.8684900758   -0.6504594348
H        3.2643424669   -2.4505334966   -2.2644259082
H       -0.4137654023   -1.9805475281    0.9928275982
H        3.3730332044    0.1895182453   -2.6193574462
H        6.1924780813    0.5688438777    1.3437648445
H       -0.2718131915    0.7047239730    0.6211494715
H        0.5375472643    1.5986113708    1.9173942250
H       -0.4049737027    0.1335493854    2.3023339545
H        2.9558966323    0.4502346768    2.7407506995
H        2.9688002444   -1.3026109122    2.4360446421
H        1.7075268525   -0.6050038837    3.4548387611
29   

C        1.4039617627   -3.2642754844   -1.5760965558
C        0.3264963129   -3.0796402520   -0.7156740550
C        4.9992165221    1.2815312083   -1.6908812036
C        5.9146695916    1.1988236868   -0.6502450024
C        2.5073332572   -2.4157360449   -1.4898751101
C        0.3635830506   -2.0508558591    0.2284985849
C        3.8977449680    0.4349975608   -1.6372236803
C        5.6995923020    0.2863021424    0.3867600175
C        2.5583084555   -1.3783464323   -0.5403298445
C        1.4700021642   -1.1892996477    0.3425913224
C        3.7321844934   -0.4523649052   -0.5630165356
C        0.1926967708    0.5833175595    1.5378445398
C        2.3834242791   -0.2471884580    2.4406829235
N        4.6351801115   -0.5277637429    0.4298529536
N        1.4344398297   -0.1740773117    1.3172646024
H        1.3852529384   -4.0609997832   -2.3110486303
H       -0.5363544063   -3.7332378603   -0.7743240085
H        5.1356592373    1.9781897851   -2.5115450428
H        6.7927704109    1.8317265412   -0.6326150248
H        3.3407486339   -2.5574310161   -2.1690285228
H       -0.4772850662   -1.9315605653    0.8983675847
H        3.1480827655    0.4547432122   -2.4175629636
H        6.4244595922    0.2315438824    1.1904405713
H       -0.3670773516    0.6786897820    0.6019980294
H        0.4272442925    1.5916380826    1.8927138284
H       -0.4352523447    0.0794521982    2.2793806018
H        3.0370637552    0.6296578589    2.4457971232
H        2.9962885804   -1.1514421623    2.3746896089
H        1.8400648731   -0.2952495597    3.3893143690
29   

C        1.4309652473   -3.3494776242   -1.5145592555
C        0.3202465863   -3.1137592295   -0.7101069795
C        4.8668683331    1.4334949803   -1.4676819016
C        5.9028796124    1.1661446722   -0.5821367798
C        2.5372174851   -2.5052341437   -1.4251361623
C        0.3284614772   -2.0421827363    0.1867498434
C        3.7700533761    0.5798041520   -1.4389823363
C        5.8049734122    0.0742619346    0.2858596727
C        2.5532663036   -1.4205297239   -0.5308131465
C        1.4388224997   -1.1851560542    0.3065367206
C        3.7324648196   -0.4984879779   -0.5440002479
C        0.1293507504    0.5682513497    1.5127257806
C        2.4365209736   -0.0602528032    2.2845377233
N        4.7432194702   -0.7445978075    0.3071445598
N        1.3947136223   -0.1339502885    1.2457649451
H        1.4358048168   -4.1820116656   -2.2088938104
H       -0.5452161028   -3.7635008949   -0.7728599340
H        4.9092500690    2.2737307514   -2.1529924648
H        6.7847759444    1.7934765070   -0.5555125778
H        3.3981834466   -2.6833569491   -2.0599289993
H       -0.5377738084   -1.8927734661    0.8166717158
H        2.9274140826    0.7365842674   -2.0998802498
H        6.6216046155   -0.1207958683    0.9710050368
H       -0.4582955440    0.6567031846    0.5934424654
H        0.3315679242    1.5798880696    1.8781240252
H       -0.4559592009    0.0281889716    2.2635616990
H        3.0791010958    0.8096215435    2.1221687941
H        3.0478354358   -0.9676917278    2.2869320191
H        1.9752845472    0.0142441130    3.2740531967
29   

C        1.4812520969   -3.4271056457   -1.4971660481
C        0.3422096640   -3.1545381047   -0.7456834102
C        4.7923000279    1.5556401115   -1.1829021338
C        5.9258304807    1.1182126030   -0.5095725444
C        2.5857938729   -2.5812710027   -1.4043530623
C        0.3217873939   -2.0480461116    0.1077675170
C        3.6942679729    0.7033639428   -1.1991560239
C        5.9184359988   -0.1322512834    0.1165780065
C        2.5690204850   -1.4542970481   -0.5644046727
C        1.4305544742   -1.1887652107    0.2332051341
C        3.7544909867   -0.5434834537   -0.5614832982
C        0.0903205715    0.5489694080    1.4393260277
C        2.4607430743    0.0688824270    2.1241978844
N        4.8546742695   -0.9487047579    0.0968684957
N        1.3722041032   -0.1126551697    1.1467091061
H        1.5101304815   -4.2900076313   -2.1527318063
H       -0.5219981346   -3.8055453848   -0.8124128188
H        4.7618324708    2.5227191756   -1.6740917540
H        6.8141534651    1.7351650916   -0.4617054326
H        3.4710715665   -2.7889613593   -1.9953726928
H       -0.5656083258   -1.8785064651    0.7018178841
H        2.7755606544    0.9882555566   -1.6956140755
H        6.8095045230   -0.4571266289    0.6408256420
H       -0.5154892876    0.6240408806    0.5306894519
H        0.2666179214    1.5648961161    1.8063213449
H       -0.4640888932   -0.0119659611    2.1982698385
H        3.0448267646    0.9624639435    1.8865274063
H        3.1222257805   -0.8024640858    2.1378857043
H        2.0464496137    0.1686001802    3.1321350250
29   

C        1.5072461143   -3.4754030110   -1.4355062483
C        0.3465820940   -3.1716469898   -0.7316041539
C        4.7624618091    1.6086906689   -0.9503005995
C        5.9623647407    1.0600953576   -0.5159430969
C        2.6103103486   -2.6280801083   -1.3425161824
C        0.3043814973   -2.0345085502    0.0790739392
C        3.6503845666    0.7749936436   -0.9633970596
C        6.0051504245   -0.2786146423   -0.1137102190
C        2.5725415070   -1.4650597727   -0.5519680131
C        1.4116272999   -1.1728724273    0.2061564846
C        3.7603927920   -0.5630052642   -0.5562964852
C        0.0469805701    0.5747547611    1.3740189787
C        2.4195143660    0.1379832747    2.0773596199
N        4.9277628051   -1.0771936326   -0.1290380705
N        1.3371425252   -0.0787038699    1.0987540600
H        1.5546463549   -4.3635994991   -2.0552166372
H       -0.5167759981   -3.8236568839   -0.7994692914
H        4.6928442908    2.6448407094   -1.2648768736
H        6.8647705994    1.6573127053   -0.4835975625
H        3.5119774935   -2.8613246980   -1.8985312511
H       -0.5992370159   -1.8458690663    0.6419528974
H        2.6823665832    1.1426635409   -1.2794875627
H        6.9486036909   -0.6902762728    0.2251508953
H       -0.5544682621    0.6304631239    0.4610994051
H        0.2109490637    1.5976722419    1.7270134234
H       -0.5060875019    0.0197081420    2.1383046635
H        2.9407633113    1.0769243933    1.8700826266
H        3.1411145388   -0.6842734618    2.0556200289
H        2.0060523099    0.1736734803    3.0899749833
29   

C        1.5888516183   -3.5243918602   -1.3927983342
C        0.3970825404   -3.2066379687   -0.7526322251
C        4.7872719297    1.6269806844   -0.7861015080
C        6.0203853939    1.0231803105   -0.5781510730
C        2.6832741033   -2.6695528616   -1.2746198571
C        0.3163171321   -2.0486411346    0.0228445908
C        3.6652623054    0.8069716798   -0.7623589708
C        6.0861936403   -0.3559651098   -0.3584638818
C        2.6133393498   -1.4811213530   -0.5192632552
C        1.4142511182   -1.1789612701    0.1763363394
C        3.7949077585   -0.5726548544   -0.5330450299
C       -0.0048871143    0.5728188563    1.2729742823
C        2.3312565590    0.1372269460    2.0880127093
N        4.9995270539   -1.1416617424   -0.3372071845
N        1.2978747169   -0.0784532866    1.0571315257
H        1.6673432985   -4.4282992673   -1.9860695199
H       -0.4603902562   -3.8638640271   -0.8415255786
H        4.7004829993    2.6940948354   -0.9624945444
H        6.9317555432    1.6074573004   -0.5865766937
H        3.6036349789   -2.9174209640   -1.7926618191
H       -0.6117684319   -1.8514213371    0.5411265509
H        2.6764200020    1.2187273587   -0.9202967476
H        7.0564379742   -0.8118519694   -0.1997156419
H       -0.5701511557    0.6148689431    0.3365075148
H        0.1410036225    1.6004569811    1.6200682009
H       -0.5856776830    0.0244119848    2.0213848757
H        2.8098837940    1.1112626439    1.9515145151
H        3.0976488732   -0.6429452693    2.0503956806
H        1.8788901768    0.0972874233    3.0837464423
29   

C        1.6298255530   -3.5472801255   -1.3071590709
C        0.4174631900   -3.2092297264   -0.7233937052
C        4.8332638636    1.6366266066   -0.6564600445
C        6.0670054677    1.0015560552   -0.6803200038
C        2.7221847892   -2.6928292799   -1.1728786662
C        0.3149709533   -2.0310645855    0.0147142321
C        3.7030427689    0.8320038442   -0.5703258825
C        6.1253966686   -0.3932090597   -0.6260031604
C        2.6407901632   -1.4782233734   -0.4509408423
C        1.4099696900   -1.1605062222    0.1859902477
C        3.8225811650   -0.5678858160   -0.4941455884
C       -0.0449975409    0.6099493670    1.2047929859
C        2.2379048034    0.1412469761    2.1437566293
N        5.0313623952   -1.1640240481   -0.5426286053
N        1.2600257451   -0.0562191862    1.0567090596
H        1.7265669137   -4.4660594706   -1.8743406312
H       -0.4390395830   -3.8656345539   -0.8265328137
H        4.7510428346    2.7171506346   -0.7118521929
H        6.9837357570    1.5733064924   -0.7491405277
H        3.6478818983   -2.9686145518   -1.6664348220
H       -0.6304782320   -1.8192866347    0.4943686478
H        2.7186975798    1.2812453046   -0.5765111314
H        7.0957261709   -0.8749215912   -0.6547061541
H       -0.5708527288    0.6372238571    0.2450835560
H        0.0953656311    1.6431405747    1.5372328586
H       -0.6613930071    0.0812025115    1.9387933719
H        2.6805121994    1.1397251304    2.0818070750
H        3.0395154030   -0.6021009684    2.0968092401
H        1.7444862669    0.0282440666    3.1140932728
29   

C        1.6739353910   -3.5814766994   -1.2154307645
C        0.4449272834   -3.2189526801   -0.6899608050
C        4.9048736460    1.6314225047   -0.5341878476
C        6.1078253156    0.9917778009   -0.7900618917
C        2.7662410254   -2.7290748451   -1.0712112080
C        0.3271881380   -2.0187358434    0.0048145454
C        3.7742362353    0.8355657852   -0.3883044975
C        6.1342123157   -0.3984757505   -0.9046639934
C        2.6785006656   -1.4835039619   -0.3918546848
C        1.4210212341   -1.1488034358    0.1879897535
C        3.8612798843   -0.5702685624   -0.4669861187
C       -0.0577084423    0.6535355559    1.1119531816
C        2.1410575699    0.1150885518    2.2050959203
N        5.0405885380   -1.1601828051   -0.7607882054
N        1.2385900973   -0.0429819776    1.0487959478
H        1.7848609694   -4.5180878991   -1.7499458559
H       -0.4120134200   -3.8731962138   -0.8027406099
H        4.8429638853    2.7125542703   -0.4658447361
H        7.0219828468    1.5576813251   -0.9168056917
H        3.6933315125   -3.0440217155   -1.5369960428
H       -0.6321101227   -1.7889657549    0.4473033991
H        2.8182302251    1.3171956242   -0.2447152383
H        7.0779016807   -0.8850437604   -1.1216951651
H       -0.5367984077    0.6595772149    0.1276741379
H        0.0886366544    1.6939065396    1.4182149527
H       -0.7200431447    0.1605841199    1.8307353138
H        2.5423205192    1.1323858246    2.2381851350
H        2.9786314361   -0.5871774786    2.1534270456
H        1.5969444531   -0.0856176952    3.1332375452
29   

C        1.7759619035   -3.6107622923   -1.0068551985
C        0.8435593201   -3.4940553333    0.0081143159
C        5.2567073980    1.4652705857   -0.0953268551
C        6.0568917808    1.1373291508   -1.1762932828
C        2.6686678407   -2.5695434446   -1.2501785254
C        0.7900190899   -2.3181157848    0.7475285743
C        4.1396353561    0.6720679873    0.1438488368
C        5.7265953493    0.0322360759   -1.9572725644
C        2.6706005399   -1.3604149045   -0.4942375382
C        1.6638153730   -1.2388202536    0.5075315017
C        3.8096242397   -0.4083300550   -0.7081950655
C        0.9819329559    1.1337898454    0.3878056987
C        0.9658892637   -0.0611519521    2.6018848164
N        4.6464128405   -0.7251895002   -1.7228922329
N        1.3816632438   -0.0378770847    1.1890074004
H        1.8237533580   -4.5149182438   -1.6030869225
H        0.1491032241   -4.3016974570    0.2094438091
H        5.5009938151    2.2995815286    0.5539747952
H        6.9415733135    1.7157963701   -1.4100526622
H        3.3941006830   -2.7467626553   -2.0358375488
H        0.0141328675   -2.2308347672    1.4956736510
H        3.5654740927    0.8959079735    1.0266424252
H        6.3702595504   -0.2285630655   -2.7891730022
H        1.3217081079    1.0358235728   -0.6479234924
H        1.4189702410    2.0458157889    0.8056426819
H       -0.1083769559    1.2286206323    0.3811618102
H        1.3142372823    0.8425681813    3.1111432488
H        1.4014148082   -0.9244412683    3.1151920647
H       -0.1248907324   -0.1162204593    2.6764421372
