19   
Generated by ForceBalance from scan.xyz: Frame 1 of 24
C        0.6908989153    0.8861057329    1.2916666470
C        6.6681496931   -1.9639883698    0.9966022880
C        0.9691587084   -0.5580050389    1.7154571902
C        5.6973780215   -1.4544762221   -0.0675415223
C        2.1948181818   -0.7195168127    2.6214498551
S        3.9236878764   -1.6750805829    0.3483155411
S        3.7915234018   -0.1929150738    1.8896230836
H        0.5367384260    1.5305979843    2.1653297935
H        1.5274223190    1.2945656797    0.7177491393
H       -0.2090397849    0.9421699193    0.6708399478
H        6.5319958694   -1.4306161233    1.9411000728
H        6.5160612863   -3.0309577576    1.1829498730
H        7.7023860597   -1.8131337233    0.6649222461
H        1.0868286969   -1.1909393609    0.8288471940
H        0.1065274418   -0.9568508186    2.2657925600
H        5.8103869766   -2.0101096591   -1.0043636794
H        5.8680956282   -0.3983578256   -0.2971330548
H        2.1018905307   -0.0860161603    3.5113960742
H        2.3007527337   -1.7548684463    2.9593264063
19   
Generated by ForceBalance from scan.xyz: Frame 2 of 24
C        0.5830796942    0.8386731853    1.3397217396
C        6.5670266619   -2.0535653303    1.0545934513
C        1.0096623234   -0.5788372398    1.7294234995
C        5.7733107034   -1.4279370219   -0.0900987820
C        2.3066177876   -0.6422221191    2.5428808980
S        3.9509416296   -1.4550713557    0.1409818864
S        3.7965073865    0.0050503912    1.6899565580
H        0.4389308634    1.4647783193    2.2282918656
H        1.3390400908    1.3182898541    0.7116484482
H       -0.3607768392    0.8216701568    0.7853744673
H        6.3814464417   -1.5235504262    1.9927053503
H        6.2899058588   -3.1026771006    1.1929397028
H        7.6413416350   -2.0038417745    0.8407059553
H        1.1149433047   -1.1990890306    0.8319585854
H        0.2240501921   -1.0491091878    2.3359050463
H        5.9179048155   -1.9813537946   -1.0241488666
H        6.0808165800   -0.3951305232   -0.2774319433
H        2.2295829834   -0.0147853694    3.4389493140
H        2.5181613311   -1.6658620444    2.8658892900
19   
Generated by ForceBalance from scan.xyz: Frame 3 of 24
C        0.5019060379    0.7702136944    1.3787025525
C        6.4157140339   -2.1129216116    1.1186825699
C        1.0726423452   -0.6075587766    1.7248592949
C        5.8265584511   -1.3939749976   -0.0917558045
C        2.4177680615   -0.5641058888    2.4556952301
S        3.9956630711   -1.2216709923   -0.0581347925
S        3.7932365223    0.1980299822    1.5057829803
H        0.3546145625    1.3738083638    2.2821602480
H        1.1750896630    1.3204267555    0.7151929657
H       -0.4670962139    0.6747642556    0.8783001234
H        6.1837570802   -1.5714356900    2.0402120620
H        6.0146614538   -3.1271759848    1.2043825046
H        7.5064983183   -2.1780768684    1.0278448504
H        1.1773881169   -1.2117478070    0.8163289987
H        0.3687224848   -1.1480323509    2.3718360641
H        6.0113418524   -1.9505541427   -1.0171847173
H        6.2613959611   -0.3990766967   -0.2199421223
H        2.3478836080    0.0592329565    3.3556102496
H        2.7305503143   -1.5665201225    2.7620973705
19   
Generated by ForceBalance from scan.xyz: Frame 4 of 24
C        0.4711591397    0.6926815803    1.4296192068
C        6.2304158386   -2.1496638894    1.1749760911
C        1.1760263275   -0.6351190397    1.7203460713
C        5.8592527842   -1.3668485115   -0.0807253957
C        2.5532776756   -0.4844033393    2.3707204849
S        4.0640334909   -0.9886546156   -0.2370835412
S        3.8051989970    0.3853977834    1.3392296102
H        0.3275501435    1.2722378817    2.3492749414
H        1.0540084514    1.3055620624    0.7360968436
H       -0.5145540667    0.5204355622    0.9855252692
H        5.9684801876   -1.5826074102    2.0732188900
H        5.7078628647   -3.1104424397    1.2072242909
H        7.3097183897   -2.3411547521    1.1993590802
H        1.2796162178   -1.2190011938    0.7985547000
H        0.5592915582   -1.2400921305    2.3984901751
H        6.0779847898   -1.9395630888   -0.9890840798
H        6.4117386235   -0.4259683500   -0.1450250950
H        2.4891979869    0.1315279858    3.2764000676
H        2.9630524950   -1.4585442438    2.6524854406
19   
Generated by ForceBalance from scan.xyz: Frame 5 of 24
C        0.4691062557    0.5875772648    1.4569018689
C        5.9991086190   -2.1621329929    1.2142332508
C        1.3054837972   -0.6710781515    1.7037021052
C        5.8524896005   -1.3316385450   -0.0569085413
C        2.6898774737   -0.3965658259    2.2940503260
S        4.1396413905   -0.7403398324   -0.3896636750
S        3.8156614137    0.5779833016    1.2061241637
H        0.3103693433    1.1446091260    2.3879363272
H        0.9633004808    1.2571872253    0.7470520087
H       -0.5138719841    0.3280577301    1.0507630829
H        5.7420788462   -1.5662939469    2.0951282096
H        5.3496475226   -3.0424258911    1.1875529720
H        7.0357512646   -2.4997780026    1.3299210534
H        1.4240949693   -1.2365625782    0.7724250616
H        0.7770931489   -1.3346981353    2.4012842297
H        6.0959398183   -1.9210352050   -0.9484670410
H        6.5149100300   -0.4623574339   -0.0430767911
H        2.6129286343    0.2148811528    3.2018931366
H        3.1951050498   -1.3295575882    2.5578434624
19   
Generated by ForceBalance from scan.xyz: Frame 6 of 24
C        0.1223046371   -0.5586415648    0.9107275344
C        5.0141309210   -4.1240332726    4.3315804555
C        1.6100522598   -0.5534631445    1.2847906481
C        4.1577453136   -4.1079957857    3.0691071224
C        1.8437452899   -1.0664308550    2.7045797306
S        4.3982997267   -2.6128593333    2.0186844432
S        3.6118065210   -1.0927972366    3.2181662554
H       -0.2967863222   -1.5701644322    0.9615381309
H       -0.4622366916    0.0784116539    1.5845827697
H       -0.0251814220   -0.1883645326   -0.1091542447
H        6.0785907663   -4.0783248101    4.0834274417
H        4.7736167571   -3.2710382239    4.9726837357
H        4.8297422857   -5.0413760327    4.9032473417
H        2.0182399662    0.4597149939    1.1986701394
H        2.1708754044   -1.1813198438    0.5840973492
H        3.0934803324   -4.1967155430    3.3062109258
H        4.4174727143   -4.9382408430    2.4020856682
H        1.3635987985   -0.4127298284    3.4431837143
H        1.4286937344   -2.0708713074    2.8364708483
19   
Generated by ForceBalance from scan.xyz: Frame 7 of 24
C        0.1681753981   -0.7560437314    1.0344654262
C        4.7631577165   -4.0975693901    4.2827795673
C        1.6723863894   -0.6308957152    1.3082262993
C        4.1348746805   -3.9650024869    2.8988290077
C        2.0251762120   -1.0112601098    2.7450644117
S        4.6328453984   -2.4478544939    1.9798475822
S        3.8187811820   -0.9139796445    3.1465564574
H       -0.1805492445   -1.7833459373    1.1915575507
H       -0.4149466408   -0.1021997318    1.6932788159
H       -0.0648506678   -0.4806622061    0.0006044154
H        5.8546714079   -4.1250128374    4.2162079260
H        4.4803131657   -3.2533703798    4.9180976570
H        4.4209957578   -5.0192671500    4.7680871961
H        2.0077164878    0.3945593878    1.1174036232
H        2.2302897998   -1.2777318026    0.6228399002
H        3.0425849299   -3.9958514528    2.9510535441
H        4.4511779659   -4.7792103696    2.2367868869
H        1.5612959972   -0.3227669444    3.4618805855
H        1.6677896351   -2.0173612731    2.9873601029
19   
Generated by ForceBalance from scan.xyz: Frame 8 of 24
C        0.2473632118   -0.9776161739    1.1905629784
C        4.4332525290   -4.0306891327    4.1880389770
C        1.7562710088   -0.7621959009    1.3634380451
C        4.1113134080   -3.8083745194    2.7131551973
C        2.1977597180   -0.9501065371    2.8139441750
S        4.8535380472   -2.2926046409    1.9800663440
S        3.9997943242   -0.7439419720    3.1153531493
H       -0.0470593243   -1.9904049332    1.4895834012
H       -0.3307874791   -0.2707449558    1.7968078456
H       -0.0494346729   -0.8408168655    0.1455118320
H        5.5122022989   -4.1199358392    4.3434966272
H        4.0724282437   -3.1955031497    4.7953037323
H        3.9517533554   -4.9478606565    4.5468325243
H        2.0365242646    0.2439774421    1.0329859955
H        2.3081139086   -1.4634878736    0.7284194326
H        3.0317052942   -3.7868407092    2.5381753768
H        4.5208472243   -4.6113136679    2.0899249127
H        1.7460571360   -0.1926050607    3.4657275488
H        1.8874456314   -1.9267230005    3.1993494780
19   
Generated by ForceBalance from scan.xyz: Frame 9 of 24
C        0.3264812324   -1.1754789309    1.3261669448
C        4.1663865253   -3.9532908262    4.0845918004
C        1.8257311258   -0.8643303904    1.4160515054
C        4.0858825002   -3.6576140453    2.5888778731
C        2.3312882628   -0.9040265872    2.8581803770
S        5.0417762440   -2.1904475396    2.0363023912
S        4.1255297481   -0.5834270089    3.0706578862
H        0.1026571471   -2.1743052810    1.7189122821
H       -0.2671111291   -0.4531236816    1.8981842732
H       -0.0185180252   -1.1423370093    0.2875795314
H        5.1998589085   -4.1406441439    4.3890627463
H        3.7933651441   -3.1099977669    4.6731940652
H        3.5641979374   -4.8358519834    4.3301960597
H        2.0357429189    0.1239352484    0.9930124570
H        2.3931281410   -1.5825447503    0.8141354860
H        3.0502566894   -3.5504662705    2.2547578595
H        4.5269771736   -4.4700708972    2.0006636803
H        1.8682645103   -0.1112218768    3.4577625618
H        2.0795491434   -1.8528508491    3.3417163000
19   
Generated by ForceBalance from scan.xyz: Frame 10 of 24
C        0.3583904944   -1.2910813402    1.4187352477
C        4.0052189758   -3.9336227936    4.0262763680
C        1.8430382353   -0.9062976984    1.4301415997
C        4.0929399221   -3.5681054121    2.5449181554
C        2.4100007909   -0.8592288066    2.8507122819
S        5.1967953652   -2.1557618870    2.1625713472
S        4.1900865904   -0.4450450379    2.9671636922
H        0.2001937288   -2.2830811430    1.8581018248
H       -0.2434355437   -0.5753700669    1.9904673338
H       -0.0331005029   -1.3142736018    0.3965589307
H        4.9900742488   -4.2045415470    4.4165310015
H        3.6333913862   -3.0948778201    4.6217956641
H        3.3272900883   -4.7835013707    4.1701665689
H        1.9866793208    0.0723091054    0.9598694718
H        2.4190974123   -1.6189984521    0.8299559415
H        3.1069136652   -3.3854666064    2.1116558308
H        4.5437653986   -4.3826308857    1.9670025090
H        1.9393068930   -0.0556751408    3.4296720157
H        2.2144244225   -1.7888469333    3.3916565697
19   
Generated by ForceBalance from scan.xyz: Frame 11 of 24
C        0.3644337857   -1.3481743261    1.4962275571
C        3.8959292142   -3.9586917655    3.9846948300
C        1.8380133663   -0.9286338892    1.4252409180
C        4.1390217031   -3.5277491305    2.5376284988
C        2.4652051176   -0.8099335560    2.8172209183
S        5.3239818030   -2.1444929464    2.3372543260
S        4.2357136336   -0.3450698975    2.8320200887
H        0.2509623563   -2.3253866639    1.9803143110
H       -0.2283878719   -0.6245901055    2.0674387585
H       -0.0721842726   -1.4202667971    0.4948598133
H        4.8298230222   -4.2830812723    4.4518805172
H        3.4951136260   -3.1385193277    4.5866376310
H        3.1823756177   -4.7911020457    4.0201626115
H        1.9350935117    0.0340372362    0.9120988648
H        2.4044962547   -1.6487005803    0.8251899141
H        3.2081079924   -3.2950467463    2.0170740253
H        4.6198970352   -4.3320908097    1.9700062024
H        1.9981587680    0.0066571313    3.3804517548
H        2.3138505206   -1.7172841315    3.4065060701
19   
Generated by ForceBalance from scan.xyz: Frame 12 of 24
C        0.3546363540   -1.3660992921    1.5734540398
C        3.8267146936   -3.9950893162    3.9446386923
C        1.8253314119   -0.9558720423    1.4271572055
C        4.2171127234   -3.5008598374    2.5508907804
C        2.5008694460   -0.7660026362    2.7885471557
S        5.4143990967   -2.1104607586    2.5468962931
S        4.2655063252   -0.2789075692    2.7060270509
H        0.2577410502   -2.3188527144    2.1071967896
H       -0.2145933387   -0.6140590387    2.1317443316
H       -0.1196353148   -1.4832197038    0.5937017159
H        4.7111139471   -4.3195396626    4.4999058859
H        3.3404136144   -3.2113287488    4.5314696164
H        3.1365102914   -4.8443877248    3.8668046086
H        1.9039960707   -0.0214401353    0.8612410127
H        2.3681628772   -1.7070524518    0.8440294673
H        3.3455762387   -3.2408441252    1.9477255435
H        4.7511133570   -4.2839236427    2.0017496732
H        2.0371133867    0.0661926025    3.3309098812
H        2.3869305734   -1.6476432529    3.4229055035
19   
Generated by ForceBalance from scan.xyz: Frame 13 of 24
C        1.9362788470    1.2305108571    1.8566418096
C        5.5098874723   -1.1678516806    0.0849506836
C        2.0624162866   -0.1409817276    1.1882121784
C        4.8510247739   -2.3451474666    0.8051547331
C        2.0001839654   -1.3149518268    2.1706981354
S        5.0415330395   -2.3070959043    2.6325586880
S        3.2883822329   -1.3613731647    3.4745101830
H        0.9919580930    1.3143334252    2.4073694688
H        2.7530232073    1.3976509892    2.5647346222
H        1.9609284038    2.0311507844    1.1104902908
H        5.1090797848   -0.2117504253    0.4310867669
H        6.5878399870   -1.1590909966    0.2689241001
H        5.3468725713   -1.2408066359   -0.9975275116
H        2.9877882653   -0.1853794239    0.6091793918
H        1.2416950394   -0.2772697347    0.4704806237
H        5.3272130584   -3.2894276380    0.5222634718
H        3.7946669989   -2.4457505814    0.5505149777
H        1.0778084039   -1.2570802257    2.7619820205
H        1.9694663042   -2.2797282987    1.6552590677
19   
Generated by ForceBalance from scan.xyz: Frame 14 of 24
C        1.9604120540    1.2272389345    1.7860772208
C        5.5007170149   -1.1253508616    0.1755497230
C        2.0412774171   -0.1729417006    1.1719091346
C        4.8243539303   -2.3649755118    0.7620381638
C        2.0264024156   -1.3016620438    2.2076132160
S        4.9596285687   -2.5147119755    2.5854913943
S        3.4052436020   -1.2990066866    3.4247125477
H        1.0492627868    1.3420578020    2.3850001516
H        2.8171385413    1.4193348476    2.4387646354
H        1.9470222831    1.9951199268    1.0059579256
H        5.1017992724   -0.2084152502    0.6174595777
H        6.5763000020   -1.1457963082    0.3717913780
H        5.3483387461   -1.0798668919   -0.9097915208
H        2.9309403095   -0.2489781648    0.5425667656
H        1.1788646900   -0.3327301831    0.5100283492
H        5.3122602097   -3.2799191158    0.4089060430
H        3.7750724001   -2.4416340976    0.4706896803
H        1.1344912406   -1.2117629997    2.8395016725
H        1.9712371210   -2.2888413669    1.7388177988
19   
Generated by ForceBalance from scan.xyz: Frame 15 of 24
C        1.9544551032    1.2165003298    1.7388120520
C        5.5198933786   -1.0905157217    0.2605061376
C        1.9929027545   -0.2084663898    1.1792599376
C        4.8168430460   -2.3718867063    0.7051435558
C        2.0461820994   -1.2910351642    2.2620287832
S        4.8595213457   -2.6787394197    2.5144665538
S        3.5379246645   -1.2438929285    3.3463243839
H        1.0858637638    1.3587730059    2.3925257153
H        2.8535914123    1.4332517634    2.3237485489
H        1.8895766695    1.9525471238    0.9310963032
H        5.0969101426   -0.2152694417    0.7616586857
H        6.5854326339   -1.1307429529    0.5031534828
H        5.4152662167   -0.9499618284   -0.8220274571
H        2.8403160283   -0.3140251679    0.4969802097
H        1.0883178327   -0.3912305311    0.5830013284
H        5.3171426137   -3.2573540771    0.2970934248
H        3.7796625661   -2.4118784220    0.3650945478
H        1.2015879526   -1.1680882650    2.9502380559
H        1.9643922218   -2.2974525637    1.8408751079
19   
Generated by ForceBalance from scan.xyz: Frame 16 of 24
C        1.9646718812    1.2072702340    1.6770874338
C        5.5870095749   -1.0699201264    0.3375379995
C        1.8975713804   -0.2492633277    1.2086175610
C        4.8337000746   -2.3661686525    0.6220439651
C        2.0048113378   -1.2654428522    2.3504580489
S        4.7054197644   -2.8096110779    2.4032054597
S        3.6134327242   -1.2314662279    3.2587948303
H        1.1605469742    1.4282054257    2.3888035266
H        2.9177624052    1.4180799519    2.1723311439
H        1.8628088913    1.8962716476    0.8325142212
H        5.1080759307   -0.2215868097    0.8349369417
H        6.6180836697   -1.1319258434    0.6970257266
H        5.6048997951   -0.8687542360   -0.7400132455
H        2.6806238561   -0.4353485679    0.4676871036
H        0.9394653962   -0.4256812767    0.7008424527
H        5.3561809323   -3.2287194789    0.1924406877
H        3.8284469174   -2.3551111710    0.1937219840
H        1.2397762754   -1.0589380685    3.1080345044
H        1.8488110854   -2.2900787944    2.0010990659
19   
Generated by ForceBalance from scan.xyz: Frame 17 of 24
C        2.0404393330    1.1152382997    1.5499755888
C        5.6897866811   -0.9824286207    0.4373976153
C        1.7432044274   -0.3616933209    1.2748843647
C        4.8669560020   -2.2658020746    0.4675912855
C        1.9102887684   -1.2646923786    2.5012972804
S        4.5132207677   -2.9217961521    2.1553902354
S        3.6203575768   -1.3391603145    3.1897669927
H        1.3805072207    1.5091299349    2.3318393054
H        3.0731556175    1.2548727215    1.8840812087
H        1.8906974347    1.7199403248    0.6497860058
H        5.1663311269   -0.1709487566    0.9506941988
H        6.6567511464   -1.1250063832    0.9285501945
H        5.8664405002   -0.6723468745   -0.5990024502
H        2.3786517421   -0.7244812074    0.4611058245
H        0.7066398408   -0.4670292889    0.9270059026
H        5.4117752202   -3.0934457454   -0.0016063115
H        3.9237293057   -2.1517144132   -0.0713570631
H        1.2941355064   -0.8942567203    3.3296715383
H        1.5997824477   -2.2916208162    2.2903148550
19   
Generated by ForceBalance from scan.xyz: Frame 18 of 24
C        2.1292667990    0.8099907389    1.1998149239
C        5.9748880501   -0.9034843977    0.6152416752
C        1.5144659600   -0.5805602084    1.3808345008
C        4.7941539259   -1.8030728832    0.2633624551
C        1.8208569241   -1.2404299307    2.7258759880
S        4.2196071262   -2.8718663548    1.6534212254
S        3.6030305385   -1.5121548852    3.1153576896
H        1.7725674114    1.5015917503    1.9717675151
H        3.2204495695    0.7759457714    1.2685835706
H        1.8625455728    1.2306181689    0.2247717355
H        5.7098875012   -0.2126464807    1.4209252732
H        6.8352142957   -1.4947714578    0.9421520437
H        6.2712300383   -0.3099724182   -0.2576453326
H        1.8365004916   -1.2514882536    0.5770209933
H        0.4219233898   -0.5128197685    1.2941790154
H        5.0696810543   -2.5302551158   -0.5094561766
H        3.9508692805   -1.2225946390   -0.1156412774
H        1.4788883954   -0.6107494335    3.5569727928
H        1.3116354745   -2.2045488208    2.8061203671
19   
Generated by ForceBalance from scan.xyz: Frame 19 of 24
C        1.8559901017    0.8662546685    1.1826273290
C        6.2283534718   -1.0868872873    0.6534405816
C        1.3756648914   -0.5673261425    1.4253016728
C        4.9151730492   -1.7290856041    0.2169192516
C        1.8174077431   -1.1590851333    2.7643084360
S        4.1148383353   -2.7543699469    1.5223254820
S        3.6401665875   -1.3342373174    2.9850037835
H        1.4774380377    1.5457835015    1.9551355296
H        2.9485815043    0.9260325186    1.1974660924
H        1.5082915545    1.2360848742    0.2125590395
H        6.0633852091   -0.3913622856    1.4815676133
H        6.9466210299   -1.8447944679    0.9795449182
H        6.6690330112   -0.5246671314   -0.1783902552
H        1.7199408858   -1.2268436710    0.6202603317
H        0.2785215293   -0.5987149801    1.3950704734
H        5.0759929452   -2.4382807982   -0.6034466057
H        4.1992692401   -0.9780204969   -0.1279000965
H        1.5199152712   -0.5135853500    3.5999088757
H        1.3673891875   -2.1420953724    2.9245516244
19   
Generated by ForceBalance from scan.xyz: Frame 20 of 24
C        1.5862490793    0.9157815187    1.1983707363
C        6.4354864521   -1.2575535481    0.6986976190
C        1.2335541910   -0.5474276638    1.4798024957
C        5.0760314270   -1.6925387195    0.1585843296
C        1.8335405930   -1.0955819195    2.7751810760
S        4.0587463936   -2.6314373884    1.3700926787
S        3.6753654995   -1.1569793898    2.8227569459
H        1.2287917356    1.5706188788    2.0018254408
H        2.6690624181    1.0516380930    1.1165405461
H        1.1298081194    1.2549446419    0.2627869751
H        6.3186528013   -0.5599539661    1.5333186367
H        7.0118201026   -2.1187132474    1.0491972164
H        7.0088797465   -0.7508713226   -0.0866994230
H        1.5572153069   -1.1827901726    0.6474744072
H        0.1431324829   -0.6587458350    1.5456054599
H        5.1914515507   -2.3908043396   -0.6785091407
H        4.4943953541   -0.8370023460   -0.1968358096
H        1.5785406267   -0.4598596232    3.6317668340
H        1.4614980781   -2.1011896834    2.9871139509
19   
Generated by ForceBalance from scan.xyz: Frame 21 of 24
C        1.3440821633    0.9483315928    1.2226860385
C        6.5891184152   -1.4141374933    0.7489138651
C        1.1163844177   -0.5346993271    1.5275360815
C        5.2346284886   -1.6691554251    0.0917634617
C        1.8730153133   -1.0390879884    2.7577138111
S        4.0173630694   -2.5014074815    1.1860705144
S        3.7089549460   -0.9815298559    2.6319747253
H        1.0256819241    1.5783929864    2.0617494442
H        2.4025682195    1.1529494953    1.0350102457
H        0.7767897135    1.2571301588    0.3386714755
H        6.4937746213   -0.7214136794    1.5903269331
H        7.0256812379   -2.3456644884    1.1205419391
H        7.2810976135   -0.9693065181    0.0238818480
H        1.3998372892   -1.1463311950    0.6639122059
H        0.0471763201   -0.7169296082    1.6993141008
H        5.3350703896   -2.3583724306   -0.7544475219
H        4.7899609973   -0.7421786749   -0.2820458587
H        1.6611192479   -0.4178134519    3.6360790497
H        1.5862778242   -2.0644528666    3.0061509347
19   
Generated by ForceBalance from scan.xyz: Frame 22 of 24
C        1.1343294077    0.9646427595    1.2432671449
C        6.6868585025   -1.5550940374    0.8092928444
C        1.0279576921   -0.5265580977    1.5729063152
C        5.3752132805   -1.6338122119    0.0298764973
C        1.9291452976   -0.9714295180    2.7274858609
S        3.9757161145   -2.3429692735    0.9793835828
S        3.7357115481   -0.7989062535    2.4323321450
H        0.8626993134    1.5815135220    2.1082816289
H        2.1548645298    1.2295292549    0.9507761948
H        0.4648594516    1.2310269899    0.4189830019
H        6.6005592378   -0.8764613921    1.6629015796
H        6.9776805448   -2.5400011380    1.1856421509
H        7.4866091743   -1.1790510609    0.1602100725
H        1.2626609687   -1.1256806023    0.6866792579
H       -0.0059948293   -0.7716295445    1.8502672165
H        5.4724526341   -2.3085254601   -0.8279116196
H        5.0747895121   -0.6527157625   -0.3497824039
H        1.7605960941   -0.3555317215    3.6186464353
H        1.7309829682   -2.0096497778    3.0089736125
19   
Generated by ForceBalance from scan.xyz: Frame 23 of 24
C        0.9649863065    0.9539237660    1.2519035887
C        6.7301306710   -1.6931694827    0.8847097163
C        0.9674686863   -0.5289991013    1.6311179971
C        5.4951733037   -1.5702656584   -0.0073395157
C        1.9966216941   -0.8939838449    2.7052706347
S        3.9363219878   -2.1405937163    0.7703973771
S        3.7528113101   -0.6065432119    2.2528421859
H        0.7593888180    1.5849665130    2.1249167365
H        1.9335330587    1.2548233334    0.8420221825
H        0.1973409673    1.1623267446    0.4996885693
H        6.6442104558   -1.0606031557    1.7726685160
H        6.8703320108   -2.7258109310    1.2165062830
H        7.6236632920   -1.3795975443    0.3318905750
H        1.1436243964   -1.1421400179    0.7410427647
H       -0.0202403694   -0.8150393785    2.0166891337
H        5.5885681281   -2.2093038836   -0.8919591714
H        5.3515966772   -0.5429802275   -0.3556514637
H        1.8640656761   -0.2750741740    3.6002423842
H        1.8932101046   -1.9384502613    3.0147570091
19   
Generated by ForceBalance from scan.xyz: Frame 24 of 24
C        0.8030406657    0.9308413510    1.2759162704
C        6.7298744065   -1.8335053233    0.9442612850
C        0.9473836569   -0.5404482161    1.6723127068
C        5.6062824023   -1.5182867608   -0.0425250447
C        2.0861084564   -0.8090542490    2.6623903270
S        3.9233830598   -1.9253415257    0.5603104726
S        3.7701454553   -0.3993800051    2.0613162388
H        0.6230539364    1.5607747049    2.1553466048
H        1.7094991017    1.2940936009    0.7832543408
H       -0.0373973937    1.0680006586    0.5879262464
H        6.6322752496   -1.2420153820    1.8585524720
H        6.7183953403   -2.8912679045    1.2220340924
H        7.7014518506   -1.6029730516    0.4912996851
H        1.0919666245   -1.1551335622    0.7773799522
H        0.0193054724   -0.8914784352    2.1430203315
H        5.7037825872   -2.1188723392   -0.9531386579
H        5.6185711305   -0.4666192720   -0.3448812882
H        1.9766053094   -0.1841413456    3.5562320667
H        2.0876695603   -1.8532262737    2.9898341641
