25   
Generated by ForceBalance from scan.xyz: Frame 1 of 24
C        2.3535172793   -1.0698782474   -0.1124871443
C        0.9867895683   -1.0834471288    0.1574664273
C        3.2870746630   -1.1729468454    0.9218318639
C        1.4861394962   -1.3367944488    2.5257197091
C        0.5516386904   -1.2258409388    1.4867117164
C        2.8633273272   -1.2926309239    2.2580515683
C       -0.9098274096   -1.2290832910    1.7457466149
C       -3.2421592253    0.3423230138    3.7796257777
C       -1.4394855585   -1.7489567243    3.0802500607
N        3.7933452682   -1.4269968913    3.2987581609
O       -1.7282106840   -0.8408438323    0.9168916738
O       -1.8268962783   -1.0158969386    5.6132278081
O       -0.6111478032    0.6029814644    4.0723411253
S       -1.6753759854   -0.3909608995    4.2898826891
H        2.7035926515   -0.9729298512   -1.1367905200
H        0.2505259334   -0.9884943332   -0.6331357214
H        4.3515317355   -1.1573626092    0.6965607864
H        1.1616053546   -1.4033477754    3.5589524175
H       -3.3681713875    1.2382372223    4.3902901459
H       -3.1734351776    0.5968668718    2.7210421572
H       -4.0444793371   -0.3717174150    3.9697844743
H       -2.4136195202   -2.2163651950    2.9275631971
H       -0.7741552482   -2.4484431610    3.5885970188
H        3.4487911384   -1.1276521677    4.2043642039
H        4.6995348981   -1.0170703992    3.1031550903
25   
Generated by ForceBalance from scan.xyz: Frame 2 of 24
C        2.3907272544   -1.0563889806   -0.1032435175
C        1.0167910255   -1.0906135295    0.1237247047
C        3.2938280040   -1.1733168777    0.9564118346
C        1.4469720795   -1.3891241062    2.5005578455
C        0.5436707188   -1.2634484370    1.4359355375
C        2.8310494140   -1.3282835787    2.2757600585
C       -0.9252797008   -1.2864156819    1.6501800534
C       -3.2944418017    0.2455245758    3.9823117290
C       -1.4779398350   -1.7227390838    3.0056460046
N        3.7306424081   -1.4814488024    3.3406810287
O       -1.7281105637   -0.9800921825    0.7748033630
O       -1.4085503949   -0.8718938432    5.5360398971
O       -0.7046709795    0.7628885406    3.7192655630
S       -1.5909221303   -0.3146575555    4.1855627938
H        2.7706893105   -0.9318251652   -1.1138183220
H        0.3031310698   -0.9856858480   -0.6860722760
H        4.3644289961   -1.1418488065    0.7642932304
H        1.0963675727   -1.4946660246    3.5225009488
H       -3.3876268128    1.1524564876    4.5825605763
H       -3.4568423971    0.4644950179    2.9254792558
H       -3.9720842511   -0.5288464866    4.3445230031
H       -2.4863221481   -2.1165440927    2.8704145048
H       -0.8629990763   -2.4615764980    3.5209277056
H        3.3567369468   -1.2051671735    4.2420177668
H        4.6381502920   -1.0586443700    3.1818706347
25   
Generated by ForceBalance from scan.xyz: Frame 3 of 24
C        2.4633486959   -1.0713603769   -0.0616017803
C        1.0809019515   -1.1279898620    0.0996491039
C        3.3166271135   -1.1823393403    1.0393272028
C        1.4013718338   -1.4331507118    2.4925327916
C        0.5478631289   -1.3130577224    1.3866028635
C        2.7936647947   -1.3536951028    2.3338816905
C       -0.9291091907   -1.3580428686    1.5342356528
C       -3.2842766661    0.1456135980    4.1931355177
C       -1.5273374390   -1.7007435825    2.8995819472
N        3.6427537180   -1.5058058672    3.4394468621
O       -1.6982391200   -1.1488114635    0.6039964470
O       -1.0470033915   -0.7423139907    5.3532235578
O       -0.8631032131    0.8811955154    3.3959206992
S       -1.5288426248   -0.2551903429    4.0484588064
H        2.8891222135   -0.9335332903   -1.0520168726
H        0.4048724866   -1.0284555948   -0.7424502273
H        4.3946031607   -1.1342405430    0.8987219053
H        1.0077719179   -1.5613575352    3.4966898115
H       -3.3365008744    1.0307860268    4.8298765644
H       -3.6730943353    0.3666669761    3.1977840507
H       -3.8071591692   -0.6918364846    4.6576135226
H       -2.5652460348   -2.0027384034    2.7533397292
H       -0.9868936257   -2.4838992741    3.4321074840
H        3.2215239840   -1.2442289135    4.3242424956
H        4.5510567644   -1.0695718063    3.3288901079
25   
Generated by ForceBalance from scan.xyz: Frame 4 of 24
C        2.4996581017   -1.0869078723   -0.0239784545
C        1.1127531469   -1.1345676802    0.0950345482
C        3.3195719253   -1.2025347614    1.1021063173
C        1.3608792044   -1.4412852206    2.4966574776
C        0.5412643552   -1.3140780179    1.3663414117
C        2.7581196581   -1.3709527236    2.3804912937
C       -0.9393916184   -1.3434248832    1.4750405166
C       -3.1854912849    0.0790417768    4.4831142636
C       -1.5764947226   -1.6171059564    2.8421003020
N        3.5700423164   -1.5287702916    3.5128146708
O       -1.6834355628   -1.1799794808    0.5172198065
O       -0.7046322702   -0.5919755670    5.1675093025
O       -1.0504644101    1.0155194608    3.2112330895
S       -1.4670993584   -0.1657049035    3.9786391560
H        2.9558480676   -0.9511404961   -1.0010572174
H        0.4627592750   -1.0295776140   -0.7666461207
H        4.4014320206   -1.1601607596    0.9930061016
H        0.9382338849   -1.5694732265    3.4888457944
H       -3.1740702958    0.9239473918    5.1744059023
H       -3.7808177383    0.3162258615    3.6001119157
H       -3.5442662370   -0.8200068530    4.9868228795
H       -2.6354830841   -1.8181700702    2.6747917434
H       -1.1175096967   -2.4480164856    3.3792671074
H        3.1206849886   -1.2631770909    4.3826516717
H        4.4845380407   -1.0989842789    3.4319234310
25   
Generated by ForceBalance from scan.xyz: Frame 5 of 24
C        2.5488807122   -1.1495483054   -0.0055521092
C        1.1597187063   -1.1639034116    0.0877610579
C        3.3444635965   -1.2695248706    1.1379819408
C        1.3527431715   -1.4452767075    2.4978946405
C        0.5589890330   -1.3136764837    1.3505101981
C        2.7535311749   -1.4081565973    2.4060875217
C       -0.9240378176   -1.3126091390    1.4255381779
C       -3.1186318083   -0.0487096104    4.6906254731
C       -1.6144347714   -1.5252139787    2.7812711518
N        3.5376904454   -1.5679099265    3.5578113848
O       -1.6391383942   -1.1778718746    0.4420832448
O       -0.4961292984   -0.3656957829    4.9432282040
O       -1.3731759814    1.1470238136    3.0785278912
S       -1.4936107345   -0.0651621467    3.8981554142
H        3.0264697122   -1.0364405000   -0.9752833659
H        0.5290279150   -1.0563091119   -0.7877181182
H        4.4289602368   -1.2527406568    1.0496225319
H        0.9068077139   -1.5424604075    3.4824118011
H       -3.0872513529    0.7706342526    5.4114348165
H       -3.8799374006    0.1390608469    3.9322512250
H       -3.2801432116   -0.9986406936    5.2029651298
H       -2.6748506990   -1.6763586142    2.5745910466
H       -1.2134326590   -2.3714510243    3.3422024761
H        3.0754789162   -1.2742779913    4.4118975277
H        4.4634469082   -1.1604917545    3.4894602694
25   
Generated by ForceBalance from scan.xyz: Frame 6 of 24
C        2.5901669694   -1.2280600426   -0.0028292501
C        1.2004133701   -1.1716873036    0.0547469114
C        3.3514853678   -1.3507027603    1.1638603154
C        1.3222658890   -1.3881832136    2.4762101524
C        0.5629724234   -1.2535131017    1.3064995842
C        2.7250824236   -1.4204686040    2.4201265293
C       -0.9207980320   -1.1855328282    1.3377210642
C       -3.0979237047   -0.1575745964    4.7903589013
C       -1.6734886545   -1.3707881284    2.6659527201
N        3.4723604703   -1.5782867594    3.5971830797
O       -1.5950482503   -1.0258607595    0.3296714501
O       -0.4541315521    0.0135708447    4.6406622370
O       -1.8563351409    1.3004617540    2.9385449005
S       -1.6341762327    0.1051708595    3.7604148692
H        3.0958466003   -1.1690801173   -0.9630574193
H        0.5970723618   -1.0620884391   -0.8395149684
H        4.4372995953   -1.3886064017    1.1022918891
H        0.8458779619   -1.4231801016    3.4496160142
H       -3.0985196585    0.6588807434    5.5151630389
H       -3.9886534920   -0.1109171661    4.1625613111
H       -3.0116481365   -1.1173826042    5.3024001605
H       -2.7223854254   -1.5290718537    2.4109926273
H       -1.2934642507   -2.2051829124    3.2595807428
H        3.0063210122   -1.2253441581    4.4263911830
H        4.4192924640   -1.2211317980    3.5372306065
25   
Generated by ForceBalance from scan.xyz: Frame 7 of 24
C        2.6346658655   -1.3361967593    0.0238798847
C        1.2497449593   -1.1957720010    0.0487225012
C        3.3630401751   -1.4622042489    1.2108366648
C        1.3076376111   -1.3360269040    2.4768290831
C        0.5811233744   -1.1984659776    1.2869699789
C        2.7069235561   -1.4503479747    2.4537140020
C       -0.8990117620   -1.0540603425    1.2759414645
C       -2.9843295274   -0.3264261186    4.9035510628
C       -1.7024554436   -1.2716346464    2.5689544066
N        3.4198677259   -1.6072817060    3.6528298407
O       -1.5285936206   -0.8188772559    0.2541301315
O       -0.4859170131    0.3736307073    4.3331687856
O       -2.3718894369    1.3110215286    2.8942242365
S       -1.7846177560    0.2043227911    3.6570622090
H        3.1622287010   -1.3419342445   -0.9263123738
H        0.6729482577   -1.0832064115   -0.8625122229
H        4.4457901609   -1.5656189764    1.1754983464
H        0.8083112105   -1.3011163883    3.4384149511
H       -3.0638418377    0.5052234062    5.6065218178
H       -3.9456206914   -0.5095776122    4.4217613552
H       -2.6089426139   -1.2159246434    5.4118525488
H       -2.7328838578   -1.4760640825    2.2748140806
H       -1.3046984085   -2.0862485084    3.1785316495
H        2.9681048706   -1.1800690493    4.4544375693
H        4.3912824110   -1.3226537122    3.5953055756
25   
Generated by ForceBalance from scan.xyz: Frame 8 of 24
C        2.5416707443   -0.1679144027    0.1754818561
C        1.2648908835    0.2407364659    0.5512746430
C        3.1769599674   -1.2263232308    0.8322239042
C        1.2594836788   -1.4686209646    2.2837321788
C        0.6211285048   -0.4146830948    1.6171834702
C        2.5358995135   -1.8985633968    1.8870676350
C       -0.7393310623    0.0517594109    1.9964311692
C       -3.0498415394   -2.2505383238    4.7137123702
C       -1.3989858382   -0.4659238276    3.2849049580
N        3.1727573971   -2.9429459492    2.5756778862
O       -1.3517688456    0.8866392968    1.3454654585
O       -3.3036868838   -1.9422581132    2.0878803527
O       -1.2382989296   -3.1484693053    2.9972144423
S       -2.2497355412   -2.0815952063    3.0984222899
H        3.0530935279    0.3338166575   -0.6417882734
H        0.7536626466    1.0506198559    0.0428342111
H        4.1730372747   -1.5374548164    0.5235585532
H        0.7571476475   -2.0069543936    3.0794182527
H       -3.5705987354   -3.2097461921    4.6836283773
H       -2.2904838159   -2.2570166515    5.4971088268
H       -3.7637243845   -1.4366742369    4.8473707908
H       -0.6840003469   -0.5861150217    4.1020353953
H       -2.1798468913    0.2459925640    3.5558180068
H        3.8792866240   -3.4253281128    2.0315851381
H        2.5300221827   -3.6053871753    2.9965651474
25   
Generated by ForceBalance from scan.xyz: Frame 9 of 24
C        2.4458951155   -0.1944788447    0.1051894019
C        1.2033515090    0.2404466039    0.5578802431
C        3.1070613638   -1.2537192373    0.7349449629
C        1.2856168151   -1.4452150954    2.3115362232
C        0.6201879032   -0.3911238278    1.6718926725
C        2.5277532887   -1.9002630445    1.8403284998
C       -0.7077247806    0.0926359264    2.1302448768
C       -3.2445346373   -2.2097831910    4.5844453672
C       -1.3403061468   -0.4853245941    3.4074540219
N        3.1936026899   -2.9416370140    2.5045795748
O       -1.3217448984    0.9790011465    1.5527295423
O       -2.8845238453   -2.1391370401    1.9490268744
O       -1.0677119872   -3.1756644310    3.4221645234
S       -2.0967424217   -2.1454391625    3.1869378484
H        2.9095817680    0.2865304486   -0.7520493182
H        0.6718114744    1.0508558371    0.0716397388
H        4.0758263486   -1.5849814887    0.3662150590
H        0.8347165818   -1.9604974209    3.1522433533
H       -3.6878373176   -3.2070711600    4.5554701271
H       -2.6901713416   -2.0702531017    5.5140100946
H       -4.0127798303   -1.4469636973    4.4518009925
H       -0.6286967148   -0.5776072208    4.2309573114
H       -2.1590741223    0.1817740511    3.6807509497
H        3.8495417701   -3.4507996932    1.9228923570
H        2.5712480503   -3.5801078503    2.9886965447
25   
Generated by ForceBalance from scan.xyz: Frame 10 of 24
C        2.3697725066   -0.2068371650    0.0601944023
C        1.1547291176    0.2410493471    0.5717397909
C        3.0547706009   -1.2670323517    0.6618751232
C        1.3140027531   -1.4344577631    2.3306192560
C        0.6250314550   -0.3794653071    1.7173808015
C        2.5274994901   -1.9015932314    1.8001431847
C       -0.6792995883    0.1051873698    2.2362990280
C       -3.3534872444   -2.1812465275    4.4306820041
C       -1.2533499565   -0.4916416816    3.5305728031
N        3.2195340880   -2.9415926319    2.4375498937
O       -1.3202711722    0.9941890556    1.6929246589
O       -2.4284607442   -2.3276375236    1.9402987030
O       -0.9518931392   -3.1520714660    3.8573700230
S       -1.9307839471   -2.1904252031    3.3145135383
H        2.7927563565    0.2648627671   -0.8228747595
H        0.6039534355    1.0509435958    0.1063776900
H        4.0012980706   -1.6077850645    0.2469206982
H        0.9095234556   -1.9375979794    3.2027540547
H       -3.7615354915   -3.1933269146    4.3977283055
H       -3.0175694261   -1.9412356797    5.4408738114
H       -4.0866694181   -1.4615039414    4.0641744584
H       -0.5217623253   -0.5558273009    4.3382048414
H       -2.0903175038    0.1430417185    3.8252435286
H        3.8388354980   -3.4634719953    1.8278542368
H        2.6218927975   -3.5668415311    2.9677838030
25   
Generated by ForceBalance from scan.xyz: Frame 11 of 24
C        2.3481864507   -0.9505769914   -0.0724114694
C        1.1415262467   -0.4201471384    0.3773893669
C        3.2448155562   -1.5475050413    0.8184889617
C        1.7388059558   -1.0685344606    2.6463124851
C        0.8371996338   -0.4804411689    1.7482423089
C        2.9452139277   -1.6231705894    2.1904057188
C       -0.4621587703    0.0739141151    2.2054313928
C       -2.7475797329   -1.3269721088    5.2320862058
C       -0.7836525412    0.0766240676    3.7051138142
N        3.8531592082   -2.1831449023    3.1005401039
O       -1.2888702217    0.5549898995    1.4421763918
O       -1.4692261314   -2.4960221424    3.2144818764
O       -0.1670445892   -1.9626430431    5.3443277326
S       -1.1952338333   -1.6038161205    4.3486512822
H        2.5982554187   -0.9093313961   -1.1292920660
H        0.4281181262    0.0311575502   -0.3033159854
H        4.1821644085   -1.9601978432    0.4508082253
H        1.5161575377   -1.1353347011    3.7070325518
H       -3.0227336856   -2.2938392373    5.6579127311
H       -2.5845093423   -0.5949920876    6.0248166462
H       -3.5037906048   -0.9940090402    4.5196633812
H        0.0363541583    0.4403535716    4.3258149451
H       -1.6667212638    0.7014994313    3.8454851098
H        4.4738337584   -2.8751610002    2.6962749008
H        3.4219124393   -2.5347538823    3.9487908426
25   
Generated by ForceBalance from scan.xyz: Frame 12 of 24
C        2.2864388451   -0.9422372518   -0.0940650853
C        1.0926810981   -0.4171785559    0.3954788646
C        3.2097955802   -1.5432948985    0.7654623306
C        1.7577186254   -1.0793217655    2.6408752708
C        0.8293678565   -0.4855559821    1.7740413599
C        2.9503391816   -1.6289314272    2.1453071275
C       -0.4556275725    0.0676447382    2.2721257503
C       -2.8812723490   -1.2578249100    5.0172731899
C       -0.7020155058    0.1170768023    3.7815344292
N        3.8878459297   -2.1940679623    3.0216775171
O       -1.3259321754    0.5064023120    1.5305237408
O       -1.2111289557   -2.5189901705    3.3888388133
O       -0.3406344788   -1.7561250777    5.6639816187
S       -1.1793625874   -1.5278874974    4.4734402677
H        2.5052893070   -0.8923446715   -1.1574623168
H        0.3590892832    0.0383024239   -0.2605963093
H        4.1370299973   -1.9512109519    0.3680205844
H        1.5663887067   -1.1524842746    3.7076093283
H       -3.2257726244   -2.2182009841    5.4055667992
H       -2.8924236535   -0.5010541953    5.8031600169
H       -3.4788212981   -0.9580102666    4.1548642623
H        0.1703936922    0.4269110365    4.3578329741
H       -1.5308770405    0.8012599746    3.9675831985
H        4.4966462349   -2.8813665583    2.5921132295
H        3.4866929118   -2.5533842042    3.8811937356
25   
Generated by ForceBalance from scan.xyz: Frame 13 of 24
C        2.2199742721   -0.9212237602   -0.1220904104
C        1.0350242636   -0.4289764831    0.4201312842
C        3.1844541192   -1.5197091780    0.6926228787
C        1.7934535460   -1.1172438487    2.6267648666
C        0.8234072862   -0.5247204512    1.8061976575
C        2.9767781240   -1.6364020359    2.0789912745
C       -0.4530621965   -0.0022413980    2.3562406834
C       -2.9695975413   -1.2269425795    4.7832573301
C       -0.6267916088    0.1057263366    3.8701412654
N        3.9554092594   -2.2022083344    2.9090474050
O       -1.3820730237    0.3629543179    1.6440888610
O       -0.9942882022   -2.5668219239    3.6432935262
O       -0.5905725230   -1.5641440331    5.9601160001
S       -1.1891679832   -1.4824837245    4.6173591605
H        2.3995005539   -0.8469811531   -1.1914012689
H        0.2700268203    0.0241282804   -0.2007787604
H        4.1041793982   -1.9023667083    0.2547569893
H        1.6362189459   -1.2194735372    3.6961475027
H       -3.3786572203   -2.1763611125    5.1338598631
H       -3.1530548674   -0.4360386306    5.5118829829
H       -3.3725470728   -0.9750782040    3.8007615886
H        0.2908206029    0.3547553553    4.4045845979
H       -1.3912218432    0.8528118581    4.0873227189
H        4.5614266862   -2.8676687905    2.4427188099
H        3.5925646927   -2.5890144113    3.7735088144
25   
Generated by ForceBalance from scan.xyz: Frame 14 of 24
C        2.1936040646   -0.8933113509   -0.1127771386
C        1.0102412642   -0.4373456925    0.4638207089
C        3.1809141102   -1.5011548724    0.6668110428
C        1.8191846930   -1.1780515514    2.6369315157
C        0.8271288875   -0.5757663358    1.8507446452
C        2.9988802968   -1.6644628528    2.0522149024
C       -0.4465538803   -0.0886422329    2.4371456289
C       -2.9894125847   -1.2196149756    4.5739867553
C       -0.5576224122    0.1021081788    3.9480100155
N        3.9983890788   -2.2447406289    2.8463460849
O       -1.4270789984    0.1860960460    1.7517556843
O       -0.7926161064   -2.5798004026    3.9932905642
O       -0.8663080042   -1.2934707966    6.2033564363
S       -1.2051191507   -1.4034898277    4.7758463544
H        2.3539890406   -0.7826415644   -1.1819634130
H        0.2279204763    0.0220897477   -0.1303544829
H        4.0985395515   -1.8557101988    0.2017256962
H        1.6723817061   -1.3244455585    3.7021401623
H       -3.4313153907   -2.1491711145    4.9375033449
H       -3.3289993988   -0.3713468641    5.1697253740
H       -3.2013403848   -1.0773427493    3.5130853236
H        0.3920638579    0.3025894253    4.4463798916
H       -1.2595797880    0.9095296787    4.1616165503
H        4.6059069183   -2.8853632153    2.3483159668
H        3.6557811085   -2.6644752949    3.7035967961
25   
Generated by ForceBalance from scan.xyz: Frame 15 of 24
C        2.1021640835   -0.8384907939   -0.1304536719
C        0.9403623724   -0.3792269181    0.4861650119
C        3.0983592861   -1.4812276752    0.6090338469
C        1.7909298851   -1.1850243473    2.6207654388
C        0.7902014664   -0.5479049550    1.8740593795
C        2.9467257070   -1.6768977185    1.9940057711
C       -0.4602349473   -0.0566982463    2.5053988784
C       -2.9302154217   -1.2851005712    4.4374061081
C       -0.5083226848    0.1620344525    4.0161485394
N        3.9533913328   -2.2959433350    2.7481543291
O       -1.4686979916    0.2036970551    1.8549937672
O       -0.5650047965   -2.4964190728    4.3566205079
O       -1.0888683408   -0.9832175336    6.3478784850
S       -1.1895352638   -1.2833062907    4.9113076335
H        2.2386835419   -0.7025508530   -1.2000342042
H        0.1518029581    0.1074498132   -0.0773527708
H        3.9986273513   -1.8379484098    0.1127195218
H        1.6601826946   -1.3623245932    3.6829865585
H       -3.3540942898   -2.1894132738    4.8781080581
H       -3.4069285650   -0.3948655537    4.8490528011
H       -3.0017663911   -1.3079628644    3.3499828650
H        0.4652970862    0.3288254707    4.4800135774
H       -1.1678452458    1.0028888419    4.2378218007
H        4.5346135946   -2.9377634489    2.2211987507
H        3.6242723647   -2.7256750542    3.6057619702
25   
Generated by ForceBalance from scan.xyz: Frame 16 of 24
C        2.0275707167   -0.8284898831   -0.1194697195
C        0.8961958736   -0.3313254404    0.5233912697
C        3.0137453549   -1.5131266976    0.5959896339
C        1.7575938455   -1.1870421151    2.6355596666
C        0.7673169107   -0.5063507437    1.9131551615
C        2.8827920924   -1.7146697378    1.9822208564
C       -0.4506056351    0.0256244702    2.5744481265
C       -2.8106532232   -1.4428081868    4.2570198395
C       -0.4708543814    0.2125720572    4.0903763242
N        3.8810848627   -2.3744035092    2.7119457845
O       -1.4559767405    0.3434936697    1.9451130442
O       -0.3621983198   -2.3988997581    4.6878423725
O       -1.3601881892   -0.7793998367    6.3896964382
S       -1.1814105077   -1.2131508775    4.9955085791
H        2.1486496370   -0.6887032593   -1.1904253977
H        0.1161792122    0.1904219992   -0.0202920752
H        3.8908497500   -1.8974344029    0.0792426206
H        1.6381888179   -1.3701401565    3.6980659810
H       -3.2703373025   -2.2520574957    4.8278042067
H       -3.3818896610   -0.5205460173    4.3654702100
H       -2.7001887204   -1.7170982845    3.2088408284
H        0.5125023258    0.3464924629    4.5444083751
H       -1.1078694094    1.0650074694    4.3315865146
H        4.4241710103   -3.0388940262    2.1725780579
H        3.5557531562   -2.7891353147    3.5783953965
25   
Generated by ForceBalance from scan.xyz: Frame 17 of 24
C        1.9754755165   -0.8821453616   -0.1020462757
C        0.8841665373   -0.3124910414    0.5492647600
C        2.9347163155   -1.6083803621    0.6097554856
C        1.7319327404   -1.1805859652    2.6627364564
C        0.7680084869   -0.4592621824    1.9438653454
C        2.8173679078   -1.7779541316    2.0013643582
C       -0.4097184091    0.1457004889    2.6157433691
C       -2.5672603893   -1.6571930192    3.9853335519
C       -0.4372946428    0.2733120411    4.1386039390
N        3.7904059440   -2.4750137044    2.7287683425
O       -1.3815598438    0.5610224379    1.9911724939
O       -0.1667770532   -2.2684160713    4.9693476822
O       -1.6669347338   -0.6881774850    6.2944388419
S       -1.1583403537   -1.1775779115    5.0042062275
H        2.0862286431   -0.7673059832   -1.1770741667
H        0.1254651996    0.2434363693    0.0093830808
H        3.7804495951   -2.0489127744    0.0856281042
H        1.6241440793   -1.3360922733    3.7308208202
H       -3.0902765308   -2.4208164385    4.5642585928
H       -3.2042606851   -0.7870240972    3.8246717634
H       -2.2094160903   -2.0641284811    3.0399237940
H        0.5439734821    0.3949077821    4.6004235968
H       -1.0829179042    1.1122161910    4.4007171818
H        4.2976950879   -3.1710408845    2.1946331445
H        3.4597321903   -2.8564909795    3.6083070153
25   
Generated by ForceBalance from scan.xyz: Frame 18 of 24
C        1.8024746275   -0.9125506444   -0.0770066255
C        0.7821255692   -0.2519808791    0.6028546100
C        2.7436330514   -1.6810340994    0.6145052937
C        1.6635365655   -1.1175047753    2.7038054018
C        0.7175749713   -0.3536682247    2.0047097200
C        2.6791917655   -1.8009532647    2.0147311470
C       -0.3929179178    0.3384321711    2.7089096473
C       -2.2246465452   -1.8171196380    3.7944329227
C       -0.4093163563    0.3868350440    4.2369250415
N        3.6387329518   -2.5344430544    2.7220687712
O       -1.3221470676    0.8683128230    2.1084846370
O       -0.0142830164   -2.0701272792    5.2632204405
O       -1.9332143830   -0.6579378135    6.1689444211
S       -1.1176721964   -1.1174036867    5.0353995500
H        1.8710338471   -0.8366742721   -1.1589753185
H        0.0382203168    0.3387786127    0.0796902832
H        3.5341539291   -2.1916008333    0.0682343155
H        1.6025180758   -1.2311163202    3.7808767680
H       -2.7331433080   -2.6418671548    4.2974018815
H       -2.9384112092   -1.0537709726    3.4830253607
H       -1.6376703461   -2.1825664537    2.9512711470
H        0.5765081572    0.4937834832    4.6919785310
H       -1.0633480021    1.2030628588    4.5434841410
H        4.0788996763   -3.2781729904    2.1929221195
H        3.3303495939   -2.8601146089    3.6316240091
25   
Generated by ForceBalance from scan.xyz: Frame 19 of 24
C        1.7283928532   -0.9077113313   -0.0619653461
C        0.7487897308   -0.1977451474    0.6295843087
C        2.6386075515   -1.7211356986    0.6181136723
C        1.6080561724   -1.1070729557    2.7189222847
C        0.6918866506   -0.2969092712    2.0305395532
C        2.5842464948   -1.8365891711    2.0198245444
C       -0.3838726742    0.4385671706    2.7499132129
C       -1.9231782607   -1.9605653778    3.6960572992
C       -0.3795358887    0.4448500468    4.2773527408
N        3.5187774901   -2.6099971790    2.7157459950
O       -1.2866034497    1.0240856511    2.1634698316
O       -0.0067793342   -1.8857893603    5.5564737336
O       -2.1775645880   -0.6121554409    5.9637564256
S       -1.1232368206   -1.0664774226    5.0457220470
H        1.7880296776   -0.8348988145   -1.1446616468
H        0.0280102118    0.4273598315    0.1139787884
H        3.3982149725   -2.2683416902    0.0635919674
H        1.5631601343   -1.2119137146    3.7985787546
H       -2.4352039092   -2.7962187563    4.1770961311
H       -2.6417827987   -1.2995433514    3.2104172996
H       -1.1692289113   -2.3200215817    2.9958731479
H        0.6160471673    0.5145285763    4.7158891345
H       -1.0115022136    1.2654144089    4.6163743198
H        3.9232186075   -3.3724445394    2.1850634124
H        3.2179386934   -2.9127280374    3.6354947537
25   
Generated by ForceBalance from scan.xyz: Frame 20 of 24
C        1.9453500467   -0.8498544413   -0.1093875959
C        0.6398184278   -1.2363950725    0.1881961961
C        2.9024851498   -0.7188627817    0.9000314860
C        1.2556871249   -1.3828530359    2.5406873271
C        0.2962686019   -1.5070923177    1.5236009573
C        2.5673396124   -0.9777451079    2.2425033108
C       -1.1118501381   -1.8812907420    1.8310437136
C       -1.7122631149    0.6171815640    3.3662108608
C       -1.4687624189   -2.2866193421    3.2595725088
N        3.5294450899   -0.8972373574    3.2542367589
O       -1.9985074798   -1.8577780796    0.9862836063
O       -3.1425751519   -0.9779161432    4.9037845939
O       -0.6190611319   -0.8053932967    5.3329314403
S       -1.7649375099   -0.8609818959    4.4046691127
H        2.2277574339   -0.6425070598   -1.1381289727
H       -0.1169638124   -1.3305337504   -0.5829336043
H        3.9175731568   -0.4174689842    0.6498409767
H        0.9994013327   -1.5683586474    3.5795031756
H       -1.9718453253    1.4377867363    4.0379419057
H       -0.7093936726    0.7516313266    2.9618171471
H       -2.4573377744    0.5215581106    2.5757474200
H       -2.4198886272   -2.8184574356    3.2353849553
H       -0.7022645895   -2.8859217404    3.7505575718
H        3.1555575148   -0.7599096869    4.1866262385
H        4.2996333838   -0.2671873941    3.0636072747
25   
Generated by ForceBalance from scan.xyz: Frame 21 of 24
C        2.0115280863   -0.8701166710   -0.1108118811
C        0.6920097901   -1.2021265489    0.1871955488
C        2.9750363114   -0.7869795617    0.8986198429
C        1.3034440050   -1.3946402843    2.5373388167
C        0.3384537456   -1.4699555543    1.5221532084
C        2.6296432085   -1.0397822104    2.2388664043
C       -1.0805070849   -1.7954467071    1.8236874178
C       -2.0356442750    0.6068956596    3.3643996573
C       -1.4707120498   -2.2267734504    3.2375796111
N        3.5931950431   -1.0012095199    3.2528882360
O       -1.9667925845   -1.7160005280    0.9800334280
O       -2.9620915148   -1.1084913141    5.1607195805
O       -0.4550539870   -0.6035735975    5.1305336628
S       -1.7263966970   -0.8276156033    4.4157055912
H        2.3011248086   -0.6682601887   -1.1386773905
H       -0.0687671703   -1.2596127504   -0.5835014641
H        4.0015035130   -0.5259742409    0.6491540891
H        1.0370043698   -1.5679253044    3.5746390388
H       -2.2800826779    1.4174324298    4.0536518002
H       -1.1348434502    0.8427220773    2.7970716521
H       -2.8783914776    0.3915555357    2.7067736826
H       -2.4367239860   -2.7285294879    3.1843431878
H       -0.7329910032   -2.8640811768    3.7272629991
H        3.2191817461   -0.8419613695    4.1819400692
H        4.3853331280   -0.3982345591    3.0638541887
25   
Generated by ForceBalance from scan.xyz: Frame 22 of 24
C        2.1065251369   -0.9499235530   -0.1405802728
C        0.7669842754   -1.1794410167    0.1634470587
C        3.0742722233   -0.9193446844    0.8678842743
C        1.3678091265   -1.3777303062    2.5167800469
C        0.3986772315   -1.4006597361    1.5034320374
C        2.7147762993   -1.1209309265    2.2129201152
C       -1.0368749966   -1.6292770856    1.8065354153
C       -2.4637844943    0.5689091861    3.4434813023
C       -1.4565790128   -2.1161685623    3.1935929213
N        3.6811153568   -1.1276404570    3.2266192865
O       -1.9217703800   -1.4407484605    0.9771280822
O       -2.7667069572   -1.2574414102    5.3503222074
O       -0.4312076944   -0.3200985905    4.9147836861
S       -1.7430570517   -0.7703936834    4.4138541279
H        2.4089107656   -0.7885246368   -1.1719138337
H        0.0028664301   -1.1952764426   -0.6059564498
H        4.1164882986   -0.7374201671    0.6135610302
H        1.0856938503   -1.5048679010    3.5563323986
H       -2.7751187495    1.3161072477    4.1760016872
H       -1.7081791967    0.9767957855    2.7720943019
H       -3.3216184856    0.1872559438    2.8891265369
H       -2.4172254063   -2.6234283209    3.1007360105
H       -0.7300536899   -2.7682332466    3.6814937184
H        3.3186597565   -0.9159229201    4.1498233116
H        4.5098620125   -0.5809383848    3.0232112096
25   
Generated by ForceBalance from scan.xyz: Frame 23 of 24
C        2.1847049161   -1.0266988118   -0.1492021060
C        0.8336275038   -1.1573016692    0.1633925059
C        3.1556098398   -1.0439436530    0.8560481353
C        1.4270999062   -1.3555611132    2.5174661778
C        0.4551371736   -1.3304525059    1.5072325919
C        2.7864774545   -1.1939444671    2.2053119469
C       -0.9911524105   -1.4592335921    1.8157625212
C       -2.8287470866    0.4826788838    3.5905457396
C       -1.4339255645   -1.9928137099    3.1773234432
N        3.7550008435   -1.2428703521    3.2168279827
O       -1.8659674218   -1.1634287292    1.0064812817
O       -2.4851271976   -1.3149305062    5.5217019998
O       -0.4539813081   -0.0065093745    4.6941899723
S       -1.7348891147   -0.6840627475    4.4248789539
H        2.4933785329   -0.9059114416   -1.1842288832
H        0.0676656619   -1.1330764277   -0.6039998602
H        4.2070942756   -0.9384726655    0.5966422679
H        1.1383980486   -1.4387961678    3.5596701826
H       -3.1097779521    1.2070026345    4.3575708727
H       -2.2925523370    0.9661227882    2.7749933981
H       -3.7052757900   -0.0519191853    3.2237944814
H       -2.3892927614   -2.5055499425    3.0565587006
H       -0.7151784450   -2.6569890067    3.6605020606
H        3.4106228185   -0.9827563559    4.1345851254
H        4.6152058652   -0.7535058250    2.9980624960
25   
Generated by ForceBalance from scan.xyz: Frame 24 of 24
C        2.2668549357   -1.0640666192   -0.1461324455
C        0.9078225325   -1.1110900388    0.1568790779
C        3.2275731968   -1.1250013878    0.8666993835
C        1.4721663340   -1.3149363907    2.5172934544
C        0.5109064709   -1.2463747898    1.4991468732
C        2.8406734873   -1.2350605833    2.2149407087
C       -0.9425630873   -1.2859820954    1.7974394660
C       -3.0740024806    0.4332210806    3.6997459962
C       -1.4236683045   -1.8360579620    3.1386533841
N        3.7985461521   -1.3246313102    3.2344361886
O       -1.7907312161   -0.9062000494    0.9947393732
O       -2.1611940318   -1.1925347713    5.6108066593
O       -0.5087166729    0.3358258050    4.4105722462
S       -1.7057181162   -0.5226390129    4.3827757955
H        2.5895651364   -0.9743993016   -1.1800333986
H        0.1503394503   -1.0497172598   -0.6168844523
H        4.2853151084   -1.0838491869    0.6147007452
H        1.1712893519   -1.3674996426    3.5582020551
H       -3.2255440306    1.2613542031    4.3947409108
H       -2.7993640204    0.7962345340    2.7097806832
H       -3.9590645389   -0.2023833097    3.6579575235
H       -2.3830617974   -2.3367504383    2.9970107144
H       -0.7239168666   -2.5159490273    3.6274083682
H        3.4643014379   -1.0287965382    4.1450539875
H        4.6860011963   -0.8874137367    3.0139216556
