22

C      2.37047    0.29973    0.65179
C      1.16426    0.43836    1.41291
C      2.35468    1.09379   -0.45773
C      0.27053    1.33302    0.87312
C     -0.43949   -4.09737   -0.04207
C     -0.52030   -2.44902    1.68970
C     -0.21312   -4.94700   -1.25256
N     -1.06125   -4.50157    1.02693
N     -1.10310   -3.56358    2.02907
N     -0.54070   -1.31827    2.51068
O      0.52987    0.36695    4.01912
O      2.04136   -1.41928    2.99768
S      0.88194    2.02798   -0.60114
S      0.14695   -2.43708    0.07097
S      0.91436   -0.49529    2.90846
Cl     3.58897    1.23679   -1.65494
Cl    -1.27681    1.78316    1.45970
H      3.17757   -0.36709    0.92941
H     -0.64306   -4.48838   -2.14848
H      0.85591   -5.10096   -1.43113
H     -0.68679   -5.91644   -1.08749
H     -1.09815   -1.46133    3.35499
