27

C      0.38222    0.95160    0.82464
C      0.75602    1.19955    2.15927
C      1.09794   -2.39451   -1.54176
C      2.13090   -3.03931   -0.80205
C     -1.89667    0.34525    1.49764
C     -0.91583    0.54149    0.50114
C     -0.20517    0.98204    3.12793
C     -1.49626    0.56041    2.80104
C     -0.03130   -2.18431   -0.78806
C      1.74662   -3.29161    0.49334
C     -1.32987    0.63506    5.03301
N     -1.27123    0.29024   -0.86228
O     -2.60627   -1.85404   -0.54560
O     -1.47713   -1.30822   -2.79154
O     -0.10759    1.16426    4.48962
O     -2.25426    0.46443    3.94542
S      0.12799   -2.76574    0.84351
S     -1.49130   -1.33537   -1.33068
Cl     2.69708   -4.06039    1.71502
H      1.11978    1.06761    0.03492
H      1.75654    1.53065    2.41723
H      1.16559   -2.11179   -2.58678
H      3.10052   -3.31412   -1.20136
H     -2.89982    0.02785    1.23898
H     -1.12884   -0.34052    5.49513
H     -1.74382    1.34568    5.75121
H     -0.65080    0.73525   -1.53680
