41

C     -7.76649    6.37854   -5.20609
C     -6.61132    5.69844   -4.81765
C     -1.52119    1.44816   -0.80739
C     -1.57707    2.13730    0.40165
C     -2.17340    4.16359   -3.27971
C     -2.03422    4.21406   -0.77789
C     -5.52103    6.46523   -6.83651
C     -1.98084    3.52465   -2.00609
C     -2.12984    3.46376   -4.44743
C     -7.82856    7.10814   -6.39882
C     -6.68088    7.14410   -7.22194
C     -5.47566    5.74065   -5.63660
C     -1.72471    2.14192   -2.00220
C     -1.83562    3.51753    0.40498
C     -1.88563    2.00928   -4.41828
C     -2.29032    4.13080   -5.77188
C     -9.09338    7.83538   -6.79153
C     -6.69728    7.91412   -8.52217
C     -1.19983    3.95586   -6.79680
N     -3.28847    4.89191   -6.08021
N     -4.30590    5.09042   -5.20444
O     -1.86266    1.27451   -5.38089
O     -1.66841    1.43220   -3.16705
Br    -1.91868    4.45058    2.07500
H     -8.64217    6.33606   -4.56202
H     -6.59496    5.13852   -3.88421
H     -1.32450    0.38113   -0.83806
H     -1.42273    1.60974    1.33701
H     -2.35336    5.23619   -3.30444
H     -2.23198    5.28154   -0.76850
H     -4.63826    6.48714   -7.46581
H     -8.92498    8.91361   -6.90149
H     -9.48761    7.47748   -7.75037
H     -9.87503    7.69712   -6.03944
H     -7.47267    7.53817   -9.20005
H     -6.91097    8.97654   -8.35531
H     -5.73669    7.84168   -9.03823
H     -1.11811    2.90936   -7.10296
H     -1.42402    4.57189   -7.66983
H     -0.22735    4.25662   -6.38763
H     -4.42338    4.42494   -4.44217
