35

C      1.27697   -1.83345   -4.13898
C      2.75205   -4.71970   -5.95248
C      1.97306   -0.51902   -0.30827
C      0.60480   -0.48708   -0.59973
C      1.89460   -5.76924   -5.61037
C      2.52763   -3.44154   -5.44347
C      2.66162   -1.72880   -0.36727
C     -0.05415   -1.65481   -0.96847
C      0.82602   -5.54089   -4.74132
C      1.44860   -3.19288   -4.57417
C      2.02403   -2.91769   -0.74928
C      0.65700   -2.85947   -1.08089
C      0.60887   -4.26662   -4.21424
C      2.79509   -4.22312   -0.69944
C      2.05079   -5.40565   -1.32706
C      0.55608   -5.32281   -1.01127
N      1.24522   -0.69949   -3.87740
N     -0.03550   -4.05300   -1.48649
O     -1.38304   -2.80493   -3.26777
O     -1.49988   -5.34787   -3.08549
S     -0.74794   -4.09415   -3.02796
H      3.58805   -4.89164   -6.62430
H      2.49564    0.39138   -0.02756
H      0.05302    0.44676   -0.54677
H      2.05360   -6.76328   -6.01848
H      3.17557   -2.61527   -5.71814
H      3.71973   -1.76176   -0.11414
H     -1.11035   -1.64112   -1.20584
H      0.14991   -6.34241   -4.46386
H      3.77248   -4.09444   -1.17677
H      3.00024   -4.44651    0.35581
H      2.19489   -5.41447   -2.41003
H      2.45223   -6.35071   -0.94567
H     -0.00786   -6.14587   -1.44908
H      0.39075   -5.35096    0.07120
