14

C     -1.67396   -1.46103    0.13956
C     -1.08033   -3.58696    0.76218
C     -0.35981   -1.23049   -0.29972
C      0.22524   -3.33272    0.31643
C     -1.14355    1.37558   -1.04727
N     -2.01567   -2.64170    0.66642
N      0.58294   -2.17425   -0.20654
F     -2.17007    0.90896   -1.79205
F     -0.73063    2.53638   -1.58592
F     -1.63656    1.63600    0.18373
S      0.30092    0.26396   -1.02828
Cl     1.44205   -4.57950    0.44716
H     -2.45386   -0.71162    0.07398
H     -1.35848   -4.54589    1.19025
