27

C      1.04325    2.82987    1.88948
C      1.25996    1.65197    1.69573
C      1.01407   -1.82035    0.34170
C      0.74285   -0.46886    0.54542
C      2.03917   -2.47358    1.03152
C      2.54702   -0.38636    2.16517
C      5.58137   -3.28704    4.87735
C      6.45335   -4.82544    3.26206
C      1.51648    0.26141    1.46730
C      5.48560   -3.87449    3.61112
C      2.81118   -1.74657    1.95296
C      6.62796   -3.64865    5.72353
C      7.55720   -4.59825    5.25819
C      4.38760   -3.58569    2.62674
N      7.46476   -5.16528    4.06528
N      3.85864   -2.31806    2.71224
O      4.02581   -4.43752    1.81933
Cl     6.73538   -2.93202    7.30629
Cl     8.89918   -5.08950    6.25834
H      0.84900    3.86821    2.05682
H      0.41901   -2.38542   -0.37048
H     -0.05488    0.02912    0.00364
H      2.24741   -3.52024    0.86046
H      3.14000    0.18432    2.87626
H      4.83914   -2.58160    5.23976
H      6.39929   -5.32266    2.29773
H      4.33956   -1.67034    3.32268
