50

C      3.17964   -4.13101    1.87988
C      4.47259   -4.02748    2.40896
C      2.53582   -2.99998    1.37666
C      5.10721   -2.78538    2.43482
C      6.20807    1.43152    1.40361
C      3.16501   -1.74729    1.37968
C      4.45388   -1.65975    1.92407
C      5.47216    1.62247    2.60416
C      5.95432    0.12502    1.01358
C      1.46244    1.53811    3.01976
C      1.17466    0.04267    2.82196
C      0.20047    0.48047    0.65670
C      0.41567    2.01099    0.76047
C      0.46908    2.42596    2.25032
C      5.37273    2.85241    3.45661
C      6.40671   -0.66199   -0.17542
C      1.61397    2.51975   -0.05824
C      0.80062    3.90956    2.43880
C      2.45139   -0.53869    0.80338
N      4.80604    0.51355    2.93705
N      5.12084   -0.39512    1.96467
N      1.13241   -0.36129    1.41149
O     -0.87726    2.18800    2.73352
H      2.67524   -5.09390    1.86419
H      4.97583   -4.90438    2.80728
H      1.52334   -3.06573    0.98792
H      6.10047   -2.67040    2.85965
H      6.83985    2.14608    0.89168
H      1.41489    1.78211    4.09079
H      2.48649    1.75980    2.70779
H      1.93299   -0.55082    3.33887
H      0.20256   -0.20275    3.26449
H     -0.80414    0.26090    1.03270
H      0.22798    0.17566   -0.39594
H     -0.48886    2.47844    0.34944
H      5.01062    3.70823    2.87592
H      4.68028    2.67687    4.28320
H      6.34687    3.12863    3.87513
H      6.99730   -1.53604    0.11854
H      5.55472   -1.02717   -0.75917
H      7.02294   -0.03489   -0.82336
H      2.57624    2.29937    0.41152
H      1.56282    3.60257   -0.20619
H      1.62040    2.05537   -1.05048
H      0.10408    4.53403    1.86975
H      1.82162    4.14388    2.12439
H      0.71313    4.18086    3.49823
H      3.10542    0.33657    0.88779
H      2.29306   -0.70639   -0.26898
H     -0.87573    2.34816    3.69100
