47

C      5.55524   -0.58032   -6.04939
C      6.46855    2.82476   -4.88937
C      5.84980    2.87024   -3.63330
C      6.35168    1.67312   -5.66118
C      5.12671    1.77964   -3.15907
C      3.83685   -1.75537   -3.82079
C      3.06192   -2.34432   -2.77207
C      5.62336    0.56538   -5.19011
C      4.99233    0.59882   -3.91887
C      4.22419   -0.51142   -3.37418
C      3.02269   -1.43640   -1.74823
C     -0.39802    1.64798    0.39117
C     -0.17275    1.20324   -1.07870
C     -1.50775   -0.49523    1.23460
C      1.04711   -0.24948    1.21808
C     -0.78082   -1.27675   -0.97259
C     -0.30916    0.46258    1.36766
C      0.35680   -0.23736   -1.14361
C     -3.02233   -1.70699   -0.18480
C      2.38836   -1.45306   -0.39747
N      5.51729   -1.49454   -6.77224
N     -1.88555   -0.79789   -0.14377
N      1.46514   -0.34640   -0.18444
O      3.72614   -0.31973   -2.10066
H      7.03278    3.67539   -5.25998
H      5.93127    3.76384   -3.02020
H      6.82131    1.61166   -6.63812
H      4.64948    1.82765   -2.18705
H      4.06642   -2.19711   -4.77822
H      2.58798   -3.31713   -2.77870
H      0.36242    2.38332    0.67627
H     -1.37126    2.13750    0.49776
H     -1.10325    1.27155   -1.64751
H      0.56383    1.85598   -1.55629
H     -1.28934   -1.41825    1.80947
H     -2.38057   -0.03062    1.70961
H      1.81820    0.30414    1.77168
H      0.97568   -1.24585    1.68924
H     -1.19718   -1.49342   -1.96275
H     -0.36212   -2.23166   -0.59575
H     -0.34811    0.84462    2.39477
H      0.79201   -0.40454   -2.13270
H     -3.34918   -1.84853   -1.22008
H     -3.85844   -1.27945    0.37874
H     -2.79811   -2.70353    0.24339
H      1.92306   -2.44773   -0.26651
H      3.17154   -1.37539    0.36817
