23

C      7.80936   -2.83253    2.25570
C      4.07890    1.31303   -0.04654
C      3.06594    1.51006    0.89045
C      3.80735   -0.50118    2.04980
C      4.84285   -0.69856    1.12827
C      4.95955    0.24061    0.09166
C      2.95680    0.59300    1.92986
C      7.05183   -1.60816    1.97231
C      5.71114   -1.94188    1.26911
N      8.37531   -3.83002    2.45058
N      5.96636   -2.52588   -0.04758
N      6.03984    0.17930   -0.91450
O      7.20273    0.23173   -0.50518
O      5.70214    0.16056   -2.09780
F      1.97616    0.75323    2.84633
H      4.19731    1.99329   -0.88354
H      2.37330    2.34195    0.81701
H      3.64497   -1.20941    2.85730
H      6.85535   -1.08923    2.91499
H      7.64898   -0.95110    1.33754
H      5.16932   -2.62444    1.94099
H      5.11027   -2.92699   -0.42491
H      6.64768   -3.28063    0.02203
