50

C      2.16351   -5.11601    0.14691
C      0.99500   -5.82494    0.43684
C      2.12025   -4.05909   -0.76476
C     -0.19615   -5.46948   -0.19633
C     -3.58520   -3.51398   -2.05816
C      0.93147   -3.66244   -1.39538
C     -0.23385   -4.39583   -1.09373
C     -2.88059   -3.68160   -3.28081
C     -2.66767   -3.77657   -1.05470
C     -0.90558    0.46161   -0.78069
C     -0.66435   -0.99177   -1.18902
C      1.68971   -0.77260   -0.67765
C      1.52159    0.68704   -0.23176
C      0.09079    0.94984    0.28472
C     -3.39070   -3.52714   -4.68210
C     -2.82851   -3.72930    0.43322
C      2.61762    1.08247    0.76377
C     -0.18857    0.30714    1.65124
C      0.95446   -2.44770   -2.32093
N     -1.61087   -4.01989   -3.05451
N     -1.48886   -4.07564   -1.69193
N      0.70063   -1.15126   -1.68316
O     -0.01061    2.38532    0.41452
H      3.10351   -5.38957    0.61891
H      1.01210   -6.66095    1.13075
H      3.03420   -3.51687   -0.99555
H     -1.10323   -6.03847   -0.01691
H     -4.62144   -3.23147   -1.92334
H     -0.79866    1.10308   -1.66143
H     -1.93343    0.57093   -0.40849
H     -0.87214   -1.65484   -0.33130
H     -1.35985   -1.27686   -1.98370
H      2.68663   -0.88935   -1.11904
H      1.66133   -1.43432    0.20789
H      1.62512    1.31415   -1.12497
H     -3.78689   -2.51966   -4.85044
H     -2.58249   -3.70545   -5.39510
H     -4.19895   -4.23676   -4.89041
H     -3.01026   -4.72187    0.85963
H     -1.94012   -3.32045    0.92233
H     -3.68307   -3.09736    0.68725
H      2.65055    0.40531    1.62438
H      2.45727    2.09873    1.13238
H      3.60060    1.04678    0.28095
H      0.44947    0.75001    2.41950
H     -0.02143   -0.77353    1.64583
H     -1.23338    0.47589    1.94061
H      1.94574   -2.39402   -2.78436
H      0.22677   -2.57790   -3.12156
H     -0.91388    2.59129    0.70501
