25

C     -5.31779   -0.72216   -2.38257
C     -6.08929    0.43427   -2.56428
C     -4.04694    1.77110   -2.51595
C     -3.27809    0.61488   -2.33120
C     -3.94203   -0.62421   -2.26910
C     -5.43721    1.66090   -2.62730
C      1.87820    2.96406   -1.27415
C      1.15962    2.32311   -0.09210
C      0.25250    1.51833   -2.03867
C     -1.22483    1.82629   -2.25193
O      0.97862    2.70312   -2.36042
O      0.55436    1.17284   -0.69424
O     -1.92606    0.58541   -2.20554
F     -3.20333   -1.74253   -2.09442
Br    -6.46522    3.26391   -2.87195
H     -5.78101   -1.70259   -2.32753
H     -7.16779    0.36970   -2.65313
H     -3.57907    2.74536   -2.57436
H      2.00474    4.04557   -1.18895
H      2.84943    2.48857   -1.46108
H      1.82250    1.97916    0.70426
H      0.39742    2.99368    0.32776
H      0.56228    0.67655   -2.66998
H     -1.35383    2.30721   -3.22925
H     -1.57527    2.50394   -1.46415
