47

C      2.02037   -4.33737    3.26279
C      4.66559   -6.23707    5.04596
C      5.83405   -5.70695    4.48240
C      3.42831   -5.77770    4.60605
C      5.75734   -4.73985    3.48512
C      5.44442   -2.32371    1.56005
C      4.83717   -1.56826    0.50905
C      3.34080   -4.78937    3.60671
C      4.51827   -4.25568    3.02114
C      4.50373   -3.23491    1.98567
C      3.56825   -2.06139    0.34959
C      0.09874    1.50852    1.07406
C      0.38357    1.46552   -0.45139
C     -1.38683   -0.56846    1.21056
C      1.16610   -0.76067    1.37034
C     -0.60118   -0.80070   -1.09939
C     -0.07523    0.09879    1.66327
C      0.69472    0.03316   -0.91316
C     -2.93873   -1.05025   -0.56166
C      2.40769   -1.68662   -0.51732
N      0.92025   -4.01056    3.05854
N     -1.68733   -0.39280   -0.21090
N      1.68841   -0.53076    0.01091
O      3.36197   -3.07843    1.24353
H      4.72124   -6.99905    5.81771
H      6.80694   -6.06064    4.81287
H      2.51058   -6.16807    5.03504
H      6.66967   -4.36163    3.03446
H      6.43761   -2.18971    1.96776
H      5.27161   -0.74891   -0.04797
H      0.93328    1.99447    1.59165
H     -0.79552    2.10635    1.27741
H     -0.47350    1.84588   -1.01288
H      1.24760    2.09463   -0.68640
H     -1.35460   -1.63840    1.49298
H     -2.21856   -0.11935    1.76746
H      1.95882   -0.51431    2.08838
H      0.91520   -1.81834    1.53436
H     -0.95788   -0.65265   -2.12538
H     -0.36876   -1.87956   -1.00232
H     -0.14473    0.17522    2.75460
H      1.18497    0.07933   -1.89241
H     -3.19507   -0.83276   -1.60403
H     -3.74631   -0.66884    0.07228
H     -2.90168   -2.15004   -0.43911
H      2.78315   -1.42950   -1.51355
H      1.77216   -2.58405   -0.62284
