34

C     -0.53902   -2.16093    0.28348
C      0.36987   -1.07656    0.20103
C      3.07360   -5.28398   -0.66903
C     -0.08469   -3.44594    0.08863
C      1.70384   -1.29708   -0.07260
C      1.74388   -5.03497   -0.39406
C      3.99176   -4.21979   -0.75573
C      1.28543   -3.70665   -0.19523
C      2.21267   -2.61208   -0.28074
C      3.59312   -2.89938   -0.56905
C     10.59995   -1.21598   -1.75429
C      9.82054   -2.40095   -1.70185
C      8.00887   -1.16448   -1.26199
C      4.58565   -1.82500   -0.66978
C     12.07464   -1.23306   -2.03357
N      9.99109   -0.05049   -1.54666
N      8.52585   -2.39192   -1.45722
N      8.68246   -0.00101   -1.29614
N      5.82448   -2.08084   -0.92335
N      6.66687   -1.02697   -0.99827
O     10.42681   -3.58761   -1.91065
H     -1.58750   -1.97413    0.49964
H      0.01208   -0.06189    0.35502
H      3.41956   -6.30305   -0.82050
H     -0.77114   -4.28733    0.14924
H      2.36390   -0.43860   -0.12607
H      1.03050   -5.85290   -0.32624
H      5.03657   -4.41748   -0.97240
H      4.25762   -0.79096   -0.52587
H     12.28620   -1.68504   -3.00858
H     12.45300   -0.20929   -2.02294
H     12.61139   -1.82318   -1.28303
H      6.34394   -0.06858   -0.86126
H      9.73311   -4.27112   -1.83434
