34

C     -2.88880   -2.16662   -1.37023
C     -2.54275   -2.72666    0.93497
C     -1.84560   -1.24016   -1.25380
C     -3.24916   -2.92316   -0.25957
C     -1.14169   -1.15042   -0.03367
C     -3.87535    1.33901   -0.59755
C     -4.39246    2.20516   -1.72600
C     -0.05167    1.20120    0.28899
C      0.35341    0.32713    1.45413
C     -2.99977    1.63479   -1.78196
C      0.09695   -0.30885    0.11486
C      1.30669   -0.84814   -0.64237
C     -1.52548   -0.35726   -2.42891
N     -1.51581   -1.88206    1.02825
N     -2.71594    0.55203   -2.76718
Cl    -4.54047   -4.08307   -0.34689
H     -3.41631   -2.31899   -2.31132
H     -2.81344   -3.28182    1.83089
H     -3.59953    1.80605    0.34182
H     -4.28533    0.33935   -0.49476
H     -5.15441    1.78369   -2.37696
H     -4.47593    3.27664   -1.57874
H     -1.05228    1.62096    0.32410
H      0.69729    1.84318   -0.16822
H      1.38314    0.37325    1.79376
H     -0.37516    0.15485    2.23828
H     -2.14003    2.28645   -1.67676
H      2.17087   -0.19326   -0.49934
H      1.13255   -0.93519   -1.72143
H      1.57268   -1.84253   -0.27058
H     -0.68780    0.30802   -2.23280
H     -1.32742   -0.92959   -3.33976
H     -3.55334   -0.03296   -2.86988
H     -2.55595    0.98100   -3.68745
