33

C     -5.07098   -0.62530   -4.86981
C     -7.11721   -1.88371   -5.00012
C     -4.59624   -1.56248   -3.94693
C     -6.34495   -0.79152   -5.40072
C     -5.43745   -2.63890   -3.59715
C     -2.78713    1.63835   -1.24646
C     -3.19821    0.29545   -0.65956
C     -5.25513   -5.11812   -2.91938
C     -3.84433   -4.56656   -2.88645
C     -3.51962    0.64795   -2.10393
C     -5.02749   -3.66801   -2.57648
C     -5.26671   -3.23244   -1.13671
C     -3.19367   -1.39641   -3.38306
N     -6.66895   -2.78037   -4.11892
N     -2.84432    0.01857   -3.21736
Cl    -6.98848    0.35812   -6.56110
H     -4.44662    0.21927   -5.14403
H     -8.11884   -2.03153   -5.39943
H     -3.31243    2.53255   -0.92461
H     -1.72924    1.79384   -1.44534
H     -2.40844   -0.43082   -0.48390
H     -4.00456    0.27236    0.06845
H     -5.69634   -5.34034   -3.88541
H     -5.56625   -5.78118   -2.11687
H     -3.19242   -4.84956   -2.06367
H     -3.33545   -4.43442   -3.83759
H     -4.56237    0.87146   -2.31623
H     -4.93933   -4.00813   -0.43616
H     -6.33428   -3.05220   -0.97055
H     -4.72726   -2.30951   -0.89731
H     -3.10212   -1.96113   -2.44814
H     -2.47941   -1.83603   -4.09074
H     -1.83747    0.11343   -3.11620
