31

C     -0.83133    3.14944    2.64113
C      0.13048    2.00703    4.51819
C     -1.92674    3.51731    3.41825
C     -0.96205    2.36590    5.31737
C      0.22185    2.38528    3.17420
C     -2.00111    3.12686    4.76413
C      2.42607    0.10488    0.92043
C      1.38338    1.94043    2.31495
C     -4.49436    3.80680    7.37343
C     -3.21803    3.20255    6.82757
C      1.20242    0.52217    1.73752
N      0.01392    0.50179    0.86776
O     -4.31128    5.21599    7.51069
O     -3.11825    3.53299    5.44490
H     -0.78910    3.45957    1.59976
H      0.93194    1.41955    4.96236
H     -2.73564    4.11311    3.00500
H     -0.98473    2.05436    6.35565
H      2.56702    0.78533    0.07407
H      2.30692   -0.90958    0.52163
H      3.33189    0.11713    1.53608
H      1.51693    2.63233    1.47600
H      2.30824    1.95539    2.90315
H     -4.70623    3.34229    8.34866
H     -5.32164    3.57184    6.69002
H     -3.24620    2.11130    6.95563
H     -2.35892    3.60179    7.38200
H      1.10345   -0.17049    2.59241
H     -0.81486    0.72673    1.41715
H     -0.12652   -0.44056    0.50589
H     -5.17640    5.62644    7.65793
