23

C      1.35357   -0.04413   -3.59854
C      2.28981    0.46709   -5.68672
C      0.59071   -0.57755   -2.42171
C     -1.08268    0.02970    0.32419
C      0.08097    0.67899    1.04365
C      0.33263   -0.38450    0.00325
C      4.45487   -0.00200   -7.21368
N      2.26494    0.89443   -3.51869
N      2.80677    1.19908   -4.73830
N      0.90814    0.02707   -1.24714
O     -0.23621   -1.47532   -2.56632
O      1.95581   -0.45284   -8.15530
S      1.06669   -0.66675   -5.19706
S      2.74337    0.62632   -7.44498
H     -1.70101   -0.68164    0.86183
H     -1.60146    0.61539   -0.42716
H      0.32378    1.70462    0.78022
H      0.26728    0.42016    2.08127
H      0.64957   -1.36700    0.34532
H      4.92567    0.01720   -8.19895
H      4.39817   -1.02536   -6.83753
H      4.98235    0.65263   -6.51664
H      1.66754    0.70004   -1.26150
