24

C      0.14362    0.47163   -0.33952
C     -0.08330   -0.81101   -0.70854
C      0.48886    1.56865   -1.25417
C     -0.18932   -1.05055    1.72073
C     -0.52853   -1.75325    0.38904
C     -3.00218   -0.96870    0.25379
C      0.88222    3.89664   -1.39040
C     -2.01925   -2.14416    0.23428
O      0.68947    1.46702   -2.45214
O     -0.01886   -1.25743   -1.98850
O      0.55279    2.75213   -0.58246
S     -0.08145    0.76775    1.41243
H     -0.94424   -1.23712    2.48769
H      0.77971   -1.38851    2.09554
H      0.05927   -2.68021    0.32491
H     -2.94934   -0.41304    1.19388
H     -4.02781   -1.33142    0.13229
H     -2.79496   -0.26345   -0.55626
H      0.89726    4.74283   -0.70339
H      0.12908    4.04509   -2.16834
H      1.85994    3.76414   -1.86018
H     -2.14471   -2.70427   -0.70227
H     -2.26121   -2.84931    1.03851
H     -0.17820   -2.21497   -1.99185
