50

C      4.41408    8.76111  -10.96992
C      5.07784    7.60307  -11.45509
C      3.51381    8.65882   -9.92935
C      2.32818    7.22230   -8.25966
C      1.63617   -0.11793   -5.74928
C      0.25031    1.17724   -4.27493
C      4.83189    6.36650  -10.89439
C      1.99431    1.04194   -6.45408
C      0.59416    2.33690   -4.96519
C      2.12324    5.96585   -7.73904
C      3.24113    7.39827   -9.33269
C      0.77084   -0.07527   -4.65374
C      3.90930    6.23047   -9.82077
C      1.47210    2.27421   -6.05490
C      2.83799    4.86737   -8.29575
C     -1.13367   -1.54828   -3.76102
C      2.92886   -1.49282   -0.93753
C      1.74426   -2.35414   -0.39736
C      2.56370   -1.14925   -2.39977
C      0.74264   -2.47306   -1.56825
C      1.02964   -1.24748   -2.44941
C      2.64952    3.46211   -7.76887
C      0.43851   -1.34169   -3.87425
N      3.69581    4.98986   -9.29413
O     -1.77759   -0.69252   -3.11107
O     -1.54029   -2.60229   -4.33648
O      0.97632   -2.48119   -4.54160
O      1.75761    3.48632   -6.67374
H      4.61888    9.72804  -11.42269
H      5.78514    7.69598  -12.27568
H      3.00176    9.54222   -9.55294
H      1.79853    8.08437   -7.85868
H      2.03166   -1.08222   -6.05004
H     -0.45992    1.21369   -3.45522
H      5.32908    5.46892  -11.25103
H      2.67170    0.96100   -7.29834
H      0.18303    3.30217   -4.67875
H      1.43765    5.78299   -6.92049
H      3.03029   -0.57583   -0.34473
H      3.88843   -2.01861   -0.86819
H      2.07777   -3.33623   -0.04220
H      1.27426   -1.85425    0.45783
H      2.93703   -0.16890   -2.71245
H      2.97811   -1.89609   -3.08626
H      0.94176   -3.37424   -2.15749
H     -0.30005   -2.50960   -1.24207
H      0.58978   -0.36423   -1.97220
H      2.26445    2.82856   -8.58068
H      3.62931    3.05962   -7.47627
H      0.13344   -2.97189   -4.74031
