50

C      2.03229   10.10375  -10.16713
C      1.13560   10.25517   -9.07617
C      2.60043    8.87464  -10.43209
C      2.84387    6.45774   -9.83510
C      1.98420   -0.11291   -6.26155
C      0.44098    1.01671   -4.80863
C      0.82241    9.17967   -8.27047
C      2.21308    1.07590   -6.95541
C      0.65873    2.21825   -5.49538
C      2.49546    5.42168   -9.00030
C      2.29594    7.74955   -9.61920
C      1.09803   -0.16589   -5.17483
C      1.39256    7.90084   -8.51941
C      1.55143    2.24661   -6.57214
C      1.58726    5.67581   -7.93343
C     -0.65395   -1.84112   -4.33456
C      3.30898   -1.37768   -1.41094
C      2.21160   -2.36634   -0.90580
C      2.94702   -1.06683   -2.88098
C      1.25189   -2.57561   -2.09931
C      1.43286   -1.32129   -2.96835
C      1.16087    4.57391   -6.98880
C      0.88909   -1.46611   -4.40727
N      1.05676    6.86371   -7.69882
O     -1.40051   -1.06863   -3.69031
O     -0.93135   -2.92448   -4.93207
O      1.56153   -2.53613   -5.06812
O      1.84298    3.38186   -7.32071
H      2.26831   10.96124  -10.79234
H      0.69393   11.22871   -8.87762
H      3.28796    8.75182  -11.26667
H      3.53508    6.29913  -10.66071
H      2.48727   -1.02801   -6.55481
H     -0.28179    0.97576   -4.00001
H      0.13878    9.27441   -7.43159
H      2.89982    1.11279   -7.79811
H      0.11930    3.10760   -5.18537
H      2.88762    4.41976   -9.12610
H      3.29305   -0.45852   -0.81301
H      4.31826   -1.79547   -1.31685
H      2.64048   -3.31244   -0.55538
H      1.67476   -1.93110   -0.05465
H      3.22527   -0.05184   -3.18218
H      3.45226   -1.76434   -3.55847
H      1.55251   -3.44829   -2.68838
H      0.21140   -2.71843   -1.79626
H      0.89345   -0.49069   -2.49887
H      1.38032    4.88622   -5.95832
H      0.07231    4.44262   -7.06633
H      0.78026   -3.11030   -5.29365
