42

C      2.08952   -4.03338   -0.30624
C      1.84168   -2.84641   -0.22664
C      2.82814   -8.19571   -0.63779
C     -1.53317   -4.70080   -2.70523
C      3.74658   -7.37178    0.02354
C      1.66709   -7.64137   -1.18901
C     -0.83583   -3.59130   -3.19515
C     -2.02688   -4.67701   -1.39735
C      3.50777   -6.00178    0.13355
C      1.41969   -6.27259   -1.08206
C     -0.64272   -2.46583   -2.39144
C     -1.83038   -3.54760   -0.59815
C      2.34034   -5.43780   -0.41843
C     -1.14091   -2.42520   -1.08022
C     -0.50561    1.13425    0.08936
C     -1.20994    0.16493   -0.84854
C     -1.00328   -1.20945   -0.18912
C      0.32158   -1.02885    0.61901
C      1.19345    1.01389    1.87865
C      1.65008   -1.39954   -0.07631
N      0.28070    0.39195    0.94067
O     -0.60730    2.35584    0.10606
O      1.72167   -0.68113   -1.31586
H      3.01668   -9.26278   -0.72250
H     -1.69163   -5.57174   -3.33646
H      4.64911   -7.79896    0.45272
H      0.95220   -8.27889   -1.70296
H     -0.44268   -3.60218   -4.20871
H     -2.56972   -5.53185   -1.00189
H      4.21772   -5.35820    0.64521
H      0.52212   -5.83448   -1.50423
H     -0.09100   -1.61836   -2.78181
H     -2.22737   -3.53474    0.41506
H     -2.26162    0.43397   -0.96450
H     -0.72827    0.23978   -1.82557
H     -1.77153   -1.30046    0.58612
H      0.28554   -1.62408    1.53906
H      1.21536    0.44733    2.81582
H      0.83663    2.02652    2.07357
H      2.21356    1.08107    1.47901
H      2.45439   -1.04701    0.58669
H      2.50927   -0.99050   -1.79080
