35

C      0.51578    0.38615   -1.22331
C     -1.35446   -1.07025    0.22453
C     -0.74459    0.14259   -1.78641
C     -1.69040   -0.60198   -1.05648
C      0.85981   -0.07911    0.04764
C     -0.10657   -0.80495    0.77004
C      2.30999   -0.11867    1.81799
C     -1.04340    0.64726   -3.18816
C     -3.07994   -0.87777   -1.60344
C     -2.54000    0.66013   -3.51709
C     -3.18154   -0.67275   -3.11867
C      1.15995   -0.50112    2.73538
C     -0.66007    0.40059    4.27862
C      0.49586    0.74806    3.33707
N      2.15523    0.11538    0.56093
N      3.53258    0.09137    2.42952
O      0.21803   -1.31065    2.01453
H      1.26769    0.94176   -1.77972
H     -2.06905   -1.64677    0.80807
H     -0.61685    1.64862   -3.31649
H     -0.52672    0.00238   -3.91310
H     -3.38481   -1.89580   -1.33458
H     -3.79439   -0.20626   -1.10607
H     -3.03327    1.47536   -2.97110
H     -2.68476    0.85788   -4.58524
H     -2.66647   -1.49109   -3.63898
H     -4.23204   -0.70803   -3.42886
H      1.51486   -1.15075    3.54311
H     -1.42905   -0.17429    3.75563
H     -1.12372    1.30951    4.67488
H     -0.31354   -0.19785    5.12939
H      1.26844    1.31859    3.86515
H      0.14081    1.38179    2.51683
H      4.29965    0.21263    1.77535
H      3.75348   -0.50598    3.21726
