29   

C        1.8051221480    4.7066096001   -3.2802509343
C        1.9096616177    5.2524712854   -1.9990987656
C        1.1981868748    3.4612494763   -3.4547636203
C        1.4218091310    4.5473492974   -0.8928424842
C        0.7108759044    2.7569248729   -2.3481322178
C        0.8485549361    3.2749993255   -1.0405837177
C        0.2759675730    2.6257793909    0.1917838203
C       -0.6919812647   -1.5255706764   -0.0005334099
C        0.2354430425   -0.8698681425   -1.0321673012
C       -1.6710174914   -0.4827446693    0.5525886832
C        0.9697188428    0.3191611280   -0.4044036561
C       -0.9171521667    0.7123828867    1.1428515757
N       -0.0019222566    1.2700659541    0.1449486554
O       -0.0859388211    3.3083949086    1.1443469417
H        2.1786889904    5.2556648174   -4.1374144283
H        2.3610587869    6.2284112205   -1.8600493541
H        1.0895821083    3.0474577327   -4.4510164211
H        1.4934006177    4.9961229829    0.0931339398
H        0.1973777971    1.8186584948   -2.5206463244
H       -0.0945175713   -1.9376890678    0.8198953119
H       -1.2453343677   -2.3491883694   -0.4629189604
H       -0.3564525922   -0.5247062724   -1.8860009901
H        0.9616501520   -1.6025997311   -1.3974794873
H       -2.3062273710   -0.9339891837    1.3212397617
H       -2.3190822192   -0.1310845561   -0.2567534802
H        1.6386088655    0.7716245601   -1.1402211586
H        1.6067500919   -0.0439152019    0.4093676810
H       -1.6476898165    1.4606481161    1.4695511206
H       -0.3473247760    0.3961148156    2.0231835089
29   

C        1.8785085308    4.6475286361   -3.2837345228
C        2.0457693735    5.1570742893   -1.9934323365
C        1.1336026996    3.4817470321   -3.4782387674
C        1.4788441244    4.4951837114   -0.8980696840
C        0.5677955492    2.8210293454   -2.3822096749
C        0.7577989427    3.3052174171   -1.0702888146
C        0.1226482582    2.6820841782    0.1431417382
C       -0.6061604320   -1.5052701909   -0.0002297114
C        0.2652287174   -0.8015332976   -1.0491302001
C       -1.6089876790   -0.5085639988    0.5939228419
C        0.9714333187    0.4083329470   -0.4293108974
C       -0.8855935790    0.7065819766    1.1815933448
N       -0.0206725747    1.3103150615    0.1654569471
O       -0.3378685881    3.3865271609    1.0344786746
H        2.3137310974    5.1634282107   -4.1323730687
H        2.6077417282    6.0714236236   -1.8394750304
H        0.9829317569    3.0962879730   -4.4803701240
H        1.5977041516    4.9105076988    0.0978564969
H       -0.0388052095    1.9392288776   -2.5549294519
H        0.0298652473   -1.9036707170    0.7976482171
H       -1.1401424827   -2.3441832205   -0.4578896903
H       -0.3640357960   -0.4696232910   -1.8811980684
H        1.0081975543   -1.5010044210   -1.4446991906
H       -2.2056558502   -0.9944209615    1.3722812506
H       -2.2918087661   -0.1712226897   -0.1927048061
H        1.5967566755    0.8932687003   -1.1821712403
H        1.6494804412    0.0623559705    0.3582640695
H       -1.6363651449    1.4186168629    1.5413649801
H       -0.2792512666    0.4007758872    2.0408096882
29   

C        1.9172417172    4.5730242496   -3.2657272459
C        2.1254319654    5.0364167873   -1.9633478814
C        1.0663840300    3.4870282588   -3.4895601843
C        1.4897237337    4.4093908162   -0.8852766184
C        0.4321386689    2.8611189877   -2.4107181036
C        0.6528598945    3.3047590175   -1.0913114293
C       -0.0369390100    2.6934606582    0.0982890449
C       -0.5404262326   -1.5007785732    0.0025939249
C        0.2877759795   -0.7544774743   -1.0523566102
C       -1.5560377393   -0.5437350470    0.6396245170
C        0.9740736897    0.4646211959   -0.4284131572
C       -0.8519470532    0.6791392567    1.2351654449
N       -0.0318494650    1.3230502510    0.2065025505
O       -0.6073328502    3.4035325160    0.9178422075
H        2.4061336182    5.0621657055   -4.1008928269
H        2.7734423110    5.8876471476   -1.7871450506
H        0.8901683464    3.1358357893   -4.5000899733
H        1.6407344505    4.7847927139    0.1218931012
H       -0.2449543264    2.0343772595   -2.5954990838
H        0.1243655549   -1.8966963217    0.7778871714
H       -1.0620540581   -2.3452383103   -0.4591256805
H       -0.3690131186   -0.4258219905   -1.8642235372
H        1.0406257771   -1.4257626617   -1.4770147435
H       -2.1211058317   -1.0611778050    1.4211669818
H       -2.2660950837   -0.2099493956   -0.1241918774
H        1.5648691304    0.9792842897   -1.1893448704
H        1.6823404961    0.1271969679    0.3358424233
H       -1.6124362678    1.3600277201    1.6323545949
H       -0.2140923288    0.3734450245    2.0711229723
29   

C        1.9537027347    4.5060362056   -3.2911410560
C        2.2165424006    4.9180628015   -1.9810839204
C        1.0036882594    3.5085560445   -3.5293622821
C        1.5329467946    4.3300876313   -0.9102712197
C        0.3221703813    2.9216753219   -2.4574199226
C        0.5885659209    3.3207272298   -1.1339230950
C       -0.1414099641    2.7241810341    0.0409898917
C       -0.4752311154   -1.4453245568    0.0314758691
C        0.3247733298   -0.6782320967   -1.0309010978
C       -1.4862188522   -0.5070753581    0.7042568222
C        1.0098088361    0.5425335489   -0.4087693226
C       -0.7804056120    0.7150731857    1.2999775772
N        0.0032020765    1.3776856913    0.2551823682
O       -0.8203332975    3.4309238334    0.7753851496
H        2.4795891763    4.9653032024   -4.1207853697
H        2.9450488389    5.6988925669   -1.7935985779
H        0.7894654486    3.1950369432   -4.5449350636
H        1.7285616077    4.6627549253    0.1039778456
H       -0.4242247942    2.1580454674   -2.6475310500
H        0.2094090552   -1.8454883409    0.7869884777
H       -0.9987066885   -2.2884449460   -0.4306469412
H       -0.3513439898   -0.3477349819   -1.8260543404
H        1.0761848449   -1.3363722019   -1.4780882622
H       -2.0281519255   -1.0408922274    1.4911031431
H       -2.2169560538   -0.1704946301   -0.0386707791
H        1.5748688435    1.0726111734   -1.1790506960
H        1.7400497038    0.2089317683    0.3361541009
H       -1.5351733934    1.3810826351    1.7313775389
H       -0.1157160207    0.4048396032    2.1129003822
29   

C        1.9895112077    4.4306541037   -3.3297755969
C        2.2932149304    4.7752292892   -2.0090593506
C        0.9579353630    3.5244596767   -3.5926018500
C        1.5668771688    4.2125830212   -0.9528467427
C        0.2343294569    2.9629136096   -2.5347439810
C        0.5360635878    3.2990662160   -1.2029874935
C       -0.2392574638    2.7103111832   -0.0512225979
C       -0.4120256354   -1.4090488995    0.0438562084
C        0.3943535147   -0.6292089853   -1.0051471345
C       -1.4336585930   -0.4830378455    0.7191645994
C        1.0637222852    0.5939138004   -0.3700211241
C       -0.7383158924    0.7391765456    1.3275500670
N        0.0382313131    1.4124189910    0.2849942795
O       -1.0519162879    3.3874363034    0.5650805964
H        2.5481666872    4.8707036270   -4.1483488237
H        3.0872396231    5.4839742514   -1.8022260225
H        0.7139094817    3.2618371428   -4.6158647814
H        1.7970255110    4.4911854925    0.0701730546
H       -0.5720967879    2.2676173490   -2.7415075326
H        0.2685577951   -1.8130280250    0.8009020790
H       -0.9273702480   -2.2505030782   -0.4303477543
H       -0.2759461660   -0.2983818716   -1.8052309583
H        1.1548286441   -1.2789951163   -1.4491866206
H       -1.9756636519   -1.0270805012    1.4988738607
H       -2.1632458076   -0.1454013383   -0.0245501446
H        1.6282658003    1.1341132496   -1.1342838133
H        1.7909606935    0.2659115104    0.3802092862
H       -1.4945071510    1.3969348929    1.7688068756
H       -0.0699005857    0.4269173478    2.1365381834
29   

C        1.9597771733    4.4102609571   -3.3030147080
C        2.3244891933    4.6304122340   -1.9713058544
C        0.8475310555    3.6161171124   -3.5969084421
C        1.5784828776    4.0548856240   -0.9359369287
C        0.1047950028    3.0418475211   -2.5593021942
C        0.4674564300    3.2511289130   -1.2180446058
C       -0.3382812286    2.6448241007   -0.0958331504
C       -0.3290286662   -1.4195522798    0.0978553476
C        0.4854035611   -0.6210902209   -0.9315009519
C       -1.3826360455   -0.5166780525    0.7561662200
C        1.1142717923    0.6164796315   -0.2818338332
C       -0.7228576549    0.7185158025    1.3777610218
N        0.0518520592    1.4085301857    0.3454717757
O       -1.2834748403    3.2495576817    0.3933961610
H        2.5335600040    4.8603123651   -4.1055309735
H        3.1814626342    5.2529388980   -1.7397171021
H        0.5555865958    3.4506391867   -4.6279159241
H        1.8581498726    4.2372871820    0.0962021405
H       -0.7646168183    2.4350470733   -2.7887204373
H        0.3432410011   -1.8133213745    0.8675129979
H       -0.8180012656   -2.2690393338   -0.3898187462
H       -0.1735070196   -0.3032141451   -1.7463885949
H        1.2688114226   -1.2542658722   -1.3592999684
H       -1.9267055773   -1.0734409998    1.5253553728
H       -2.1060483233   -0.1927860384    0.0002880253
H        1.6808799757    1.1698133590   -1.0354471559
H        1.8321242789    0.3069740340    0.4850162829
H       -1.4954252896    1.3612945310    1.8127681123
H       -0.0581408214    0.4184864729    2.1943470028
29   

C        2.0135241100    4.4404971466   -3.3394677245
C        2.4312116491    4.4847831490   -2.0060939129
C        0.8140027104    3.8041184744   -3.6706060573
C        1.6517733947    3.8891113771   -1.0073823749
C        0.0384194741    3.2094883693   -2.6691505523
C        0.4557238615    3.2344389562   -1.3281257146
C       -0.4009551480    2.6217430880   -0.2491176929
C       -0.2782334615   -1.3978583889    0.1726469367
C        0.5546532191   -0.6283940738   -0.8638866775
C       -1.3707389635   -0.4891311452    0.7545082551
C        1.1374277646    0.6514740040   -0.2531814881
C       -0.7542780231    0.7849495789    1.3401301687
N        0.0389815591    1.4471841895    0.3035105214
O       -1.4451525282    3.1586353936    0.0978291992
H        2.6131459385    4.9064165778   -4.1135248679
H        3.3553257052    4.9878352091   -1.7443380244
H        0.4791084060    3.7780536457   -4.7015079746
H        1.9737852254    3.9386779301    0.0272550772
H       -0.9007000662    2.7304424700   -2.9253827601
H        0.3751075301   -1.7432744625    0.9808090175
H       -0.7340278244   -2.2778703981   -0.2925535015
H       -0.0833915769   -0.3615031760   -1.7131065855
H        1.3638059457   -1.2632973436   -1.2377534999
H       -1.9291325636   -1.0220623514    1.5302704554
H       -2.0748461762   -0.2137457664   -0.0380147491
H        1.7109770820    1.1804223222   -1.0186681038
H        1.8392157755    0.3949392991    0.5472907341
H       -1.5502524497    1.4312934954    1.7249069403
H       -0.1095101476    0.5337853108    2.1885638598
29   

C        2.0040071528    4.4822144888   -3.3445066800
C        2.4607582419    4.3647152312   -2.0288671911
C        0.7514330065    3.9697208264   -3.6920719764
C        1.6678471408    3.7296541807   -1.0656286703
C       -0.0370671611    3.3353889464   -2.7257706499
C        0.4186642098    3.1916231022   -1.4044098548
C       -0.4615813800    2.5462008064   -0.3670669440
C       -0.2496550181   -1.3958369540    0.2697918790
C        0.5921123732   -0.6574378974   -0.7817113372
C       -1.3544043864   -0.4743420871    0.8062018281
C        1.1566791850    0.6500643336   -0.2127203190
C       -0.7504335663    0.8229956712    1.3527195701
N        0.0449420713    1.4570684856    0.3002046945
O       -1.5792037323    2.9909078582   -0.1362023403
H        2.6141968111    4.9785569002   -4.0908919646
H        3.4260670545    4.7737572682   -1.7524430033
H        0.3850967533    4.0707636896   -4.7075436254
H        2.0224249459    3.6585755288   -0.0429621881
H       -1.0177502917    2.9554410532   -2.9931099050
H        0.3951374006   -1.7093364279    1.0975041455
H       -0.6944866070   -2.2939542527   -0.1708513651
H       -0.0364467408   -0.4275113424   -1.6487246498
H        1.4109665892   -1.2989273249   -1.1216791058
H       -1.9186230009   -0.9829550243    1.5939206575
H       -2.0511135994   -0.2312335490   -0.0033968107
H        1.7303196208    1.1521765851   -0.9953678464
H        1.8531197799    0.4317315624    0.6035830364
H       -1.5513340724    1.4789290977    1.7104694177
H       -0.1102706382    0.6047889010    2.2136212021
29   

C        1.9520996213    4.5616884654   -3.2966204486
C        2.4479142439    4.2845382213   -2.0202559022
C        0.6635371458    4.1491851916   -3.6430008900
C        1.6581560684    3.5898808287   -1.0962458673
C       -0.1211859917    3.4548749378   -2.7158434821
C        0.3702120281    3.1489363833   -1.4342014986
C       -0.5136245038    2.4340216378   -0.4489236937
C       -0.2068807407   -1.4248393434    0.4093632138
C        0.6235592901   -0.7225143252   -0.6741456727
C       -1.3228123543   -0.4943626143    0.9040898897
C        1.1701534117    0.6178454701   -0.1674011303
C       -0.7339407851    0.8331124583    1.3926495558
N        0.0519997049    1.4359654201    0.3146187933
O       -1.6806583387    2.7777435678   -0.3024833233
H        2.5601010119    5.1039094984   -4.0122305616
H        3.4419673266    4.6165173290   -1.7424521110
H        0.2664300900    4.3729968345   -4.6267756849
H        2.0482666254    3.4027621415   -0.1016267696
H       -1.1284050936    3.1515852994   -2.9834157257
H        0.4422035474   -1.6929680763    1.2494978666
H       -0.6401003807   -2.3470677022    0.0086905998
H       -0.0091375653   -0.5410960922   -1.5496569724
H        1.4510929506   -1.3668122121   -0.9867783350
H       -1.8813708148   -0.9746056596    1.7132798120
H       -2.0220838089   -0.2958798582    0.0844576797
H        1.7270115841    1.0877586904   -0.9810259549
H        1.8764607194    0.4484543614    0.6520656310
H       -1.5417762531    1.4951510925    1.7228632864
H       -0.0907675951    0.6598972633    2.2614430851
29   

C        1.9576457154    4.6534319367   -3.3048709831
C        2.4834967891    4.2306650959   -2.0824014761
C        0.6397863994    4.3349451499   -3.6362516250
C        1.6946936394    3.4849490725   -1.1979881731
C       -0.1435973550    3.5894616821   -2.7488446739
C        0.3730958681    3.1380447618   -1.5192833069
C       -0.5151527882    2.3495080386   -0.5965922448
C       -0.1957486502   -1.4182320306    0.4911353101
C        0.6390711119   -0.7725136328   -0.6224436124
C       -1.3094756535   -0.4601247012    0.9335639068
C        1.1886043908    0.5897315455   -0.1819591465
C       -0.7168891713    0.8878902120    1.3592034567
N        0.0777577817    1.4404006854    0.2603439713
O       -1.7123191583    2.6048726949   -0.5290700034
H        2.5656332182    5.2342047354   -3.9895688253
H        3.5016996938    4.4892181242   -1.8142184115
H        0.2192990640    4.6686875596   -4.5782794044
H        2.1177868768    3.1954378152   -0.2425233501
H       -1.1708836142    3.3555539495   -3.0104228866
H        0.4496021307   -1.6466076691    1.3457050131
H       -0.6308190537   -2.3574779814    0.1343251972
H        0.0087222928   -0.6326943650   -1.5072668434
H        1.4653805709   -1.4335656025   -0.9016498090
H       -1.8743850843   -0.8977463736    1.7622051147
H       -2.0038921303   -0.2999659204    0.1014166893
H        1.7402654845    1.0144013559   -1.0234634933
H        1.8982357001    0.4596605818    0.6418436231
H       -1.5235432647    1.5693644103    1.6508507795
H       -0.0802236254    0.7545643483    2.2396937151
29   

C        1.9379970192    4.7666771038   -3.2793090781
C        2.4990911273    4.2038504793   -2.1323673761
C        0.5950898061    4.5326156871   -3.5737639077
C        1.7207565962    3.4034737907   -1.2870287281
C       -0.1775005193    3.7324550925   -2.7257221285
C        0.3695258337    3.1418234348   -1.5677926079
C       -0.5160935644    2.2740913200   -0.7136222254
C       -0.2138864027   -1.4025497865    0.6069666682
C        0.6336747882   -0.8211194889   -0.5307169988
C       -1.3294996452   -0.4182117034    0.9791069145
C        1.1836104212    0.5613726225   -0.1601432358
C       -0.7380478122    0.9501016433    1.3384935527
N        0.0788736466    1.4458954107    0.2283664508
O       -1.7305411672    2.4451643982   -0.7227473082
H        2.5386701422    5.3885471917   -3.9336926967
H        3.5385420176    4.3956100896   -1.8909664994
H        0.1469384078    4.9712409539   -4.4582887883
H        2.1843815555    3.0175299892   -0.3869458964
H       -1.2218104269    3.5614109477   -2.9682202848
H        0.4206492209   -1.5838308899    1.4806673534
H       -0.6472576019   -2.3592277022    0.2974810667
H        0.0123020916   -0.7279427256   -1.4279722641
H        1.4604658016   -1.4985653898   -0.7658160970
H       -1.9085309826   -0.8076523269    1.8218587807
H       -2.0110032263   -0.3030748201    0.1289926795
H        1.7361482115    0.9360379259   -1.0247368207
H        1.8907469057    0.4741947979    0.6714587395
H       -1.5473670343    1.6491442015    1.5764488571
H       -0.1186226225    0.8636981802    2.2369004190
29   

C        1.8843181304    4.6142152990   -3.5347712675
C        2.1087693800    3.2655955378   -3.2594412734
C        0.8792083588    5.2956691967   -2.8508194888
C        1.3349775302    2.6027751988   -2.2986016715
C        0.1092918639    4.6286178558   -1.8925895743
C        0.3195241318    3.2657482849   -1.5883655174
C       -0.5218261705    2.6362666259   -0.5067391755
C        0.1629152146   -1.4314043355    0.6245742162
C        1.2845707505   -0.5652016673    0.0355369881
C       -1.1946186753   -0.9627523928    0.0853278160
C        1.0245151428    0.9123479665    0.3452778042
C       -1.4061411642    0.5279928782    0.3652741727
N       -0.2880606062    1.3022504040   -0.1759871354
O       -1.5363817269    3.1995287681   -0.1091435255
H        2.4821428214    5.1281742939   -4.2792061975
H        2.8799010928    2.7270020188   -3.7986702053
H        0.6926402950    6.3432889722   -3.0589118208
H        1.5230571984    1.5468214272   -2.1553995144
H       -0.6644561003    5.1810381787   -1.3684179106
H        0.1708549897   -1.3457131732    1.7166238337
H        0.3248407733   -2.4829851487    0.3671497563
H        1.3270740968   -0.7101699683   -1.0488656858
H        2.2479178323   -0.8688159801    0.4568228850
H       -2.0015596266   -1.5423852369    0.5444975190
H       -1.2309444935   -1.1306847400   -0.9958544047
H        1.8350641590    1.5289502539   -0.0507436744
H        1.0319011495    1.0558294094    1.4312902346
H       -2.3527840695    0.8435132464   -0.0871620305
H       -1.4788593548    0.6978256548    1.4451076659
29   

C        1.9442731436    4.5898244168   -3.4600812990
C        2.0409934187    3.2070855852   -3.2987280822
C        1.0114447782    5.3063177931   -2.7105684733
C        1.2120727534    2.5446799675   -2.3850198052
C        0.1859773345    4.6394970674   -1.7992914272
C        0.2739641300    3.2451463553   -1.6088681681
C       -0.6309372608    2.5946446853   -0.5969014588
C        0.2316531418   -1.3936548816    0.6690269651
C        1.3069854945   -0.5094071634    0.0238999448
C       -1.1534606630   -0.9865410325    0.1514991852
C        1.0102455594    0.9684910613    0.2974626004
C       -1.4113017363    0.5022115246    0.4007209244
N       -0.3338071959    1.3029228027   -0.1837076268
O       -1.6967363695    3.1201332748   -0.2940672398
H        2.5837506852    5.1038557722   -4.1690130722
H        2.7537373114    2.6436079073   -3.8903259468
H        0.9226470058    6.3798669629   -2.8339388435
H        1.2919362580    1.4664752873   -2.3181024208
H       -0.5366826316    5.2109092322   -1.2249462904
H        0.2645685671   -1.2749470935    1.7574934301
H        0.4224107222   -2.4464984120    0.4377938339
H        1.3232908127   -0.6854226765   -1.0565237476
H        2.2914860998   -0.7699981026    0.4246101364
H       -1.9285533319   -1.5823430716    0.6436424360
H       -1.2090071732   -1.1827970633   -0.9241425447
H        1.7880725637    1.5925171138   -0.1489609723
H        1.0535665871    1.1471947302    1.3773283110
H       -2.3796434283    0.7697134121   -0.0364841913
H       -1.4663513215    0.6958930775    1.4774496000
29   

C        2.0244825637    4.5798107051   -3.3812298097
C        2.0125687315    3.1844461631   -3.3307037078
C        1.1474834049    5.3070737309   -2.5749327597
C        1.1307516261    2.5196872818   -2.4700307991
C        0.2688256102    4.6376424190   -1.7165250375
C        0.2538436721    3.2319678160   -1.6370129072
C       -0.7185122337    2.5597071338   -0.7068303022
C        0.2716489321   -1.3418499972    0.6906428050
C        1.3120282050   -0.4458232408    0.0056052463
C       -1.1333760936   -0.9749615558    0.1974740942
C        0.9914271852    1.0304984041    0.2595238257
C       -1.4215054851    0.5107256447    0.4314668356
N       -0.3741550529    1.3262138034   -0.1870526446
O       -1.8289441012    3.0432438286   -0.5179149821
H        2.7038795871    5.0964054624   -4.0500376957
H        2.6807658919    2.6151585496   -3.9670417677
H        1.1415249797    6.3905289043   -2.6161707525
H        1.1198184569    1.4357149629   -2.4744718584
H       -0.4172499366    5.2112556981   -1.1011368002
H        0.3260529309   -1.2034291864    1.7758938396
H        0.4809349316   -2.3940635444    0.4729257223
H        1.3068632095   -0.6403976297   -1.0717034354
H        2.3111849896   -0.6784058710    0.3868190444
H       -1.8835173410   -1.5817723893    0.7141938185
H       -1.2070389726   -1.1881934730   -0.8739069004
H        1.7449220177    1.6583797680   -0.2213236716
H        1.0620737205    1.2319785789    1.3338573608
H       -2.4062909035    0.7457617185    0.0129054236
H       -1.4582606803    0.7190623603    1.5060896570
29   

C        2.0563992841    4.5566341257   -3.2888255949
C        1.9736791258    3.1633324085   -3.3478500711
C        1.2162778438    5.2636436739   -2.4258005357
C        1.0575696644    2.4799349764   -2.5394217527
C        0.3030650760    4.5754848625   -1.6195365522
C        0.2217359212    3.1717670371   -1.6503990003
C       -0.7972227827    2.4656673114   -0.7978951973
C        0.3209091335   -1.3298213355    0.7169882218
C        1.3227446379   -0.4144042232    0.0002405026
C       -1.1056521986   -0.9947931630    0.2637474064
C        0.9794813182    1.0563786179    0.2561074971
C       -1.4196904559    0.4847869718    0.5041906942
N       -0.4063923041    1.3168197263   -0.1485420159
O       -1.9472899447    2.8832148399   -0.7330794276
H        2.7615949777    5.0884343110   -3.9178350363
H        2.6129346171    2.6119024489   -4.0281386310
H        1.2644094325    6.3460600952   -2.3850125237
H        0.9877478545    1.4004321709   -2.6159892466
H       -0.3598694244    5.1305132114   -0.9633858248
H        0.4032661859   -1.1870578769    1.7998758810
H        0.5463161239   -2.3780119152    0.4959201027
H        1.2915464484   -0.6133412065   -1.0758337425
H        2.3369520214   -0.6244324952    0.3538147762
H       -1.8270751639   -1.6172463741    0.8022453274
H       -1.2053118640   -1.2117024452   -0.8048781526
H        1.7055674119    1.6942990303   -0.2527019435
H        1.0795312956    1.2677810116    1.3261222564
H       -2.4232636797    0.6949517054    0.1187801459
H       -1.4271760757    0.6956656647    1.5787629093
29   

C        2.0989296857    4.5257178770   -3.2484955016
C        1.9387690397    3.1466007955   -3.4083250246
C        1.3076736365    5.2131375072   -2.3245316148
C        0.9933970629    2.4570590410   -2.6399486660
C        0.3647487511    4.5191041679   -1.5582315766
C        0.2081405226    3.1291489630   -1.6930707911
C       -0.8442122980    2.4050396348   -0.8950834800
C        0.3295481664   -1.2700581233    0.7522142899
C        1.3086387766   -0.3507000646    0.0088010855
C       -1.1112557586   -0.9421211340    0.3387153410
C        0.9655332338    1.1194877653    0.2679698779
C       -1.4251248893    0.5364039513    0.5877353673
N       -0.4330125161    1.3659064177   -0.0996549513
O       -2.0180241285    2.7482669543   -0.9600292065
H        2.8264967622    5.0627933870   -3.8468051752
H        2.5406051247    2.6123076089   -4.1348625904
H        1.4163610300    6.2854813509   -2.2067769620
H        0.8620894514    1.3902343007   -2.7851365534
H       -0.2626446172    5.0582615834   -0.8558932757
H        0.4406933241   -1.1266874733    1.8323936910
H        0.5538031294   -2.3172725283    0.5253318404
H        1.2510448054   -0.5520365770   -1.0657839986
H        2.3326896795   -0.5548966604    0.3364925377
H       -1.8140975302   -1.5681374110    0.8972007810
H       -1.2398874592   -1.1599775077   -0.7267244788
H        1.6736086420    1.7562734475   -0.2675358051
H        1.0950461421    1.3397044928    1.3329710699
H       -2.4426781020    0.7421086963    0.2388666729
H       -1.3976828300    0.7496213018    1.6613825225
29   

C        2.1036020951    4.4907738053   -3.2036403051
C        1.8690548854    3.1392554795   -3.4732413284
C        1.3690975072    5.1375507922   -2.2057263225
C        0.9046654996    2.4360098669   -2.7418843754
C        0.4066550648    4.4304543803   -1.4763508837
C        0.1739387177    3.0681984938   -1.7274923633
C       -0.8892720635    2.3177926723   -0.9654632325
C        0.3475977398   -1.2116571607    0.7975673794
C        1.3039800500   -0.2719122286    0.0488841144
C       -1.1053921848   -0.9003436010    0.4119668384
C        0.9428594752    1.1920030474    0.3203676746
C       -1.4329054323    0.5727706869    0.6766053172
N       -0.4638988048    1.4114957359   -0.0312514368
O       -2.0758168334    2.5442644047   -1.1645103938
H        2.8460559298    5.0386118765   -3.7732268987
H        2.4284881876    2.6377342172   -4.2549438944
H        1.5378053082    6.1890031512   -2.0017965175
H        0.7163554899    1.3914457689   -2.9654910441
H       -0.1748949451    4.9382282633   -0.7140715271
H        0.4742854462   -1.0773275332    1.8771260205
H        0.5825419768   -2.2534822932    0.5569742187
H        1.2357050416   -0.4666424187   -1.0264086895
H        2.3351495939   -0.4631861581    0.3616720332
H       -1.7894916877   -1.5393398071    0.9788836182
H       -1.2508123418   -1.1129322033   -0.6524788464
H        1.6330725683    1.8407370466   -0.2249554172
H        1.0826440089    1.4127200086    1.3838931899
H       -2.4613764219    0.7713797317    0.3572407869
H       -1.3812269481    0.7818372556    1.7500900867
29   

C        2.0565431217    4.4477698062   -3.1558480098
C        1.7403814824    3.1434432928   -3.5480786673
C        1.4013646697    5.0234813478   -2.0632461031
C        0.7716494046    2.4161648933   -2.8466074454
C        0.4342730342    4.2931012589   -1.3634903001
C        0.1149901674    2.9794732965   -1.7455068607
C       -0.9363997098    2.1890865916   -1.0064844303
C        0.3889958311   -1.1655495526    0.8993527700
C        1.3185120070   -0.1964910369    0.1530969530
C       -1.0725167880   -0.9068261020    0.5051820302
C        0.9037617010    1.2563943513    0.4095582217
C       -1.4487485862    0.5570717926    0.7558126856
N       -0.5057580655    1.4164723704    0.0385988742
O       -2.1141816517    2.2558904579   -1.3332671163
H        2.8025349919    5.0141660941   -3.7021948134
H        2.2405119939    2.6973161008   -4.4003704126
H        1.6367130312    6.0380866359   -1.7619249055
H        0.5210157238    1.4085130500   -3.1606233716
H       -0.0814615598    4.7453651802   -0.5231289174
H        0.5046200399   -1.0223671844    1.9789509317
H        0.6610820597   -2.1997546211    0.6649940567
H        1.2667155274   -0.4004609161   -0.9215755323
H        2.3530587770   -0.3494215011    0.4755755055
H       -1.7371145311   -1.5634307474    1.0751264404
H       -1.2067848908   -1.1330402233   -0.5579927465
H        1.5752066974    1.9236294835   -0.1373220418
H        1.0242861978    1.4928236627    1.4719906739
H       -2.4832771430    0.7235530136    0.4375930514
H       -1.4028601425    0.7785045262    1.8270499398
29   

C        2.0604691915    4.4440654268   -3.1556832487
C        1.6625146144    3.2037609723   -3.6644146497
C        1.4914394862    4.9263196267   -1.9730882319
C        0.6971699379    2.4466717833   -2.9903364219
C        0.5275378544    4.1668963041   -1.3003988153
C        0.1238952267    2.9175151631   -1.8028996571
C       -0.9153942193    2.0836017344   -1.0971213059
C        0.4074771373   -1.1131110416    0.9826493933
C        1.3377823482   -0.1361120557    0.2473899072
C       -1.0472603025   -0.8944932843    0.5417373182
C        0.8830217477    1.3125730171    0.4596732973
C       -1.4592263005    0.5658726196    0.7525164941
N       -0.5168262311    1.4292583557    0.0394896749
O       -2.0533732248    1.9966185615   -1.5402649186
H        2.8040057575    5.0333748963   -3.6807275413
H        2.0966599431    2.8304488130   -4.5851317801
H        1.7921027359    5.8911899618   -1.5803660096
H        0.3823068505    1.4896076238   -3.3928803261
H        0.0812230173    4.5464868214   -0.3875572506
H        0.4876960093   -0.9488864514    2.0624053076
H        0.7090685165   -2.1448305433    0.7748386837
H        1.3246261268   -0.3622181756   -0.8241455288
H        2.3649232066   -0.2590882402    0.6044190286
H       -1.7140548932   -1.5537996953    1.1059267330
H       -1.1466699207   -1.1440302704   -0.5201364423
H        1.5563634433    1.9803899730   -0.0837077874
H        0.9649179685    1.5758976669    1.5194076670
H       -2.4890459429    0.7078630315    0.4079659747
H       -1.4433672555    0.8100405337    1.8196499886
29   

C        1.8501891519    4.4523161236   -3.1940661214
C        0.5185081597    4.5713999237   -2.7843851581
C        2.7419270891    3.6775801788   -2.4462220961
C        0.0784906654    3.9138730771   -1.6296048420
C        2.2998972111    3.0201625276   -1.2926830214
C        0.9593508783    3.1269401888   -0.8775414477
C        0.4508480617    2.4438189795    0.3644946993
C       -1.2071236966   -1.1875489981    0.0749883705
C       -0.6637618299   -0.4025451519   -1.1283793692
C       -1.2896918249   -0.2768344177    1.3084486233
C        0.6866006594    0.2437798256   -0.7960666179
C        0.0739894385    0.3585588624    1.5973269514
N        0.5268349420    1.0730192780    0.4028019599
O       -0.0086206013    3.0988394789    1.2918109193
H        2.1919857642    4.9659447316   -4.0857805646
H       -0.1732690569    5.1788969019   -3.3570556469
H        3.7773427962    3.5915362646   -2.7562241418
H       -0.9522151298    4.0187942119   -1.3066933205
H        2.9970004958    2.4288145954   -0.7088160725
H       -0.5417331171   -2.0302525147    0.2900830274
H       -2.1980487185   -1.5905164154   -0.1581042176
H       -1.3784423547    0.3821952799   -1.3986688302
H       -0.5549264185   -1.0685514104   -1.9898925157
H       -1.6243485581   -0.8510404607    2.1778326238
H       -2.0226319407    0.5167230137    1.1268300750
H        1.0296786578    0.8049238327   -1.6684163273
H        1.4340401068   -0.5327249642   -0.6025834711
H       -0.0066024671    1.0223414096    2.4648117806
H        0.8014653051   -0.4171675452    1.8573482291
29   

C        1.8805562968    4.5310232059   -3.1485645855
C        0.5728829279    4.7477745590   -2.7042234520
C        2.7026543761    3.6234637030   -2.4746126363
C        0.0856306654    4.0526737700   -1.5912064941
C        2.2138511725    2.9287566202   -1.3625750198
C        0.8909203757    3.1245347830   -0.9182011646
C        0.3294387656    2.4302020805    0.2927165648
C       -1.1410845768   -1.2576489158    0.1695986572
C       -0.6365680895   -0.4990188119   -1.0663266773
C       -1.2405202531   -0.3054155747    1.3694704915
C        0.6941517559    0.2054093713   -0.7746733266
C        0.1058248900    0.3820417546    1.6189259332
N        0.5249391812    1.0711664282    0.3972186980
O       -0.2424150675    3.0717039948    1.1662289578
H        2.2590067076    5.0734054409   -4.0078523647
H       -0.0634293799    5.4606591111   -3.2165265911
H        3.7219838582    3.4645357118   -2.8081998167
H       -0.9246836856    4.2370774392   -1.2399553863
H        2.8644335264    2.2414348984   -0.8326758969
H       -0.4463626957   -2.0700748997    0.4070406947
H       -2.1207958324   -1.7001731043   -0.0378773550
H       -1.3807336410    0.2507293469   -1.3558408602
H       -0.5144786781   -1.1911405833   -1.9052072591
H       -1.5482509729   -0.8574264345    2.2627885503
H       -2.0001209798    0.4576493167    1.1673114324
H        0.9973922760    0.7491045248   -1.6720247934
H        1.4729165279   -0.5364006240   -0.5689432476
H        0.0154303434    1.0733989277    2.4637427211
H        0.8599361346   -0.3613422713    1.8967667763
29   

C        1.9376477877    4.6024057216   -3.1052364967
C        0.6597672007    4.9009769088   -2.6250774324
C        2.6759779364    3.5711112971   -2.5192826535
C        0.1165237223    4.1620165922   -1.5677071882
C        2.1315705741    2.8326776778   -1.4626283003
C        0.8294446242    3.1020724471   -0.9897505518
C        0.2101696836    2.3915637721    0.1829030555
C       -1.0915163767   -1.3332909212    0.2658953284
C       -0.6327227506   -0.6143947558   -1.0099510088
C       -1.2015982439   -0.3310597603    1.4227152464
C        0.6790313729    0.1445736063   -0.7749348792
C        0.1271626572    0.4071268529    1.6179648846
N        0.5103726477    1.0558023403    0.3624348831
O       -0.4541208238    3.0147638855    1.0035873425
H        2.3597904867    5.1785633699   -3.9210790025
H        0.0901326107    5.7117574678   -3.0651887104
H        3.6762057325    3.3514650683   -2.8754499771
H       -0.8689809335    4.4146812502   -1.1889673443
H        2.7314052575    2.0592506589   -0.9957721731
H       -0.3673120944   -2.1121503801    0.5264138452
H       -2.0600110394   -1.8146208704    0.0953111846
H       -1.4059019655    0.0979352722   -1.3174575486
H       -0.5030074879   -1.3379592884   -1.8207166319
H       -1.4786389021   -0.8507033731    2.3449658319
H       -1.9875947530    0.3986624062    1.1991126431
H        0.9382529148    0.6616267973   -1.7013162114
H        1.4875381088   -0.5616592725   -0.5588896964
H        0.0289835635    1.1337904151    2.4318298249
H        0.9072340273   -0.3003321333    1.9169717231
29   

C        1.9962358424    4.6922614674   -3.0681432181
C        0.7560048349    5.0577074339   -2.5403908983
C        2.6430546617    3.5508480814   -2.5900028457
C        0.1566419748    4.2747674624   -1.5470713490
C        2.0430537119    2.7682799567   -1.5970505621
C        0.7680906892    3.0993706704   -1.0844893482
C        0.0934719097    2.3673443462    0.0458908221
C       -1.0412494100   -1.3818086340    0.3746458318
C       -0.6362095787   -0.7170834108   -0.9468046607
C       -1.1661896388   -0.3204904154    1.4750783607
C        0.6514098828    0.0994678341   -0.7835560290
C        0.1391293873    0.4730975468    1.6028131444
N        0.4849115239    1.0651225231    0.3085310300
O       -0.6531413338    2.9673497707    0.8122298584
H        2.4623041296    5.3022739652   -3.8339202509
H        0.2590401545    5.9545811302   -2.8928025707
H        3.6191109533    3.2805558245   -2.9770455975
H       -0.7980107104    4.5855681678   -1.1338775228
H        2.5928564594    1.9191548696   -1.2081623724
H       -0.2832157909   -2.1180757403    0.6613596987
H       -1.9943731749   -1.9063587014    0.2513710845
H       -1.4414508675   -0.0500339696   -1.2730679399
H       -0.4977247062   -1.4776088639   -1.7215253793
H       -1.4086347121   -0.7962465766    2.4301213170
H       -1.9817533305    0.3674963462    1.2262871084
H        0.8607607863    0.5800496028   -1.7419128891
H        1.4919260247   -0.5651226684   -0.5576577634
H        0.0280541635    1.2421600221    2.3750766568
H        0.9475890399   -0.1890852434    1.9287496079
29   

C        2.0467096886    4.7868500415   -3.0195126068
C        0.8528156407    5.2003125220   -2.4265999755
C        2.5978797144    3.5518842826   -2.6747596054
C        0.2017666280    4.3728056510   -1.5046811491
C        1.9472224507    2.7240210335   -1.7527706368
C        0.7089210699    3.1030459687   -1.1822024210
C       -0.0175743968    2.3397513217   -0.1006412949
C       -0.9907945933   -1.4163053499    0.4929082107
C       -0.6335532575   -0.8193557201   -0.8727004596
C       -1.1450170382   -0.2916289928    1.5234542700
C        0.6227908989    0.0549248185   -0.7841663707
C        0.1299567068    0.5581030013    1.5825842675
N        0.4487764766    1.0798805817    0.2510465536
O       -0.8480336215    2.9068458567    0.6027355801
H        2.5530021566    5.4310273479   -3.7297599511
H        0.4315992242    6.1686573452   -2.6724626160
H        3.5427663337    3.2430129478   -3.1075807615
H       -0.7148832059    4.7285292525   -1.0444229376
H        2.4460221537    1.8076928458   -1.4638828918
H       -0.1987356570   -2.1012202190    0.8129083712
H       -1.9231215950   -1.9855186830    0.4182311796
H       -1.4699179379   -0.2051088090   -1.2234761542
H       -0.4777740878   -1.6196726479   -1.6028004052
H       -1.3588114832   -0.7129521029    2.5103237278
H       -1.9897667619    0.3464762818    1.2412791277
H        0.7844104442    0.4889236364   -1.7737289055
H        1.4950466928   -0.5620673416   -0.5438944486
H       -0.0053511626    1.3723732242    2.3029482632
H        0.9652866690   -0.0497675200    1.9444634913
