16

C      0.32962   -1.03946    1.44433
C      3.09796   -5.66798    3.14520
C     -0.85538   -0.98052    0.74366
C      2.73258   -6.98214    2.95005
C     -0.03706   -3.20576    1.25980
C      1.22475   -5.31689    2.03561
C      0.07596   -4.68096    1.34851
N      0.78084   -2.29666    1.72936
N      2.24151   -4.73930    2.62608
O     -0.79761   -5.38841    0.84380
S     -1.44537   -2.56263    0.41862
S      1.25290   -7.07804    2.07933
H      0.90336   -0.17851    1.77043
H      3.99107   -5.34046    3.66661
H     -1.39017   -0.09837    0.41480
H      3.25722   -7.87249    3.27301
