28

C      1.50869   -1.81627   -5.80617
C      2.41673   -0.57709   -2.35463
C     -0.37058   -0.43711   -2.28163
C      0.15362   -1.72706   -5.69431
C      1.68453   -0.95669   -3.48866
C      0.37021   -0.03027   -1.17293
C      0.27530   -0.88891   -3.44188
C      2.38858   -1.43691   -4.70941
C      1.78702   -0.11708   -1.20555
C     -0.33883    0.52509    0.01870
C      3.11130    1.47353   -0.05362
C     -2.35099    0.51502    1.25604
N     -0.45847   -1.27829   -4.55612
O      3.62355   -1.49952   -4.76969
O      0.10123    1.37670    0.76721
O      2.53101    0.15919   -0.08668
O     -1.57911   -0.01087    0.15619
H      1.95609   -2.17535   -6.72612
H      3.49821   -0.66780   -2.38736
H     -1.45492   -0.39156   -2.24070
H     -0.51499   -2.00639   -6.50296
H      3.70404    1.51826    0.86155
H      2.32659    2.23480   -0.02135
H      3.76262    1.63076   -0.92218
H     -3.30134   -0.01759    1.22408
H     -2.50491    1.58996    1.13467
H     -1.83712    0.33065    2.20198
H     -1.46760   -1.23259   -4.51493
