42

C     -0.70763    0.06202   -0.27200
C     -0.24189   -1.07027    0.40165
C     -2.01140    0.07757   -0.79156
C     -1.04689   -2.20749    0.56054
C     -0.13678   -5.35212    2.16270
C     -2.42157   -5.43644    2.92196
C     -2.81589   -1.04522   -0.64519
C     -1.50320   -5.33804    1.87084
C     -2.32921   -2.19369    0.00609
C      0.32538   -5.46506    3.47612
C     -0.59218   -5.59537    4.54163
C     -1.96147   -5.56351    4.23134
C     -3.30921   -4.53392    0.26694
C     -4.23814   -1.28328   -1.10149
C      2.21994   -5.74800    6.03281
C     -4.64061   -2.54973   -0.31916
C      2.18810   -4.80463    4.83080
C      0.92457   -6.55632    6.11153
C     -1.96585   -5.23035    0.42645
N     -3.34663   -3.18036    0.03476
O     -4.35696   -5.18364    0.31880
O      1.69168   -5.46674    3.65087
O     -0.22471   -5.72583    5.85571
Cl    -3.12285   -5.71253    5.53364
H     -0.06939    0.93508   -0.37554
H      0.75635   -1.07078    0.83162
H     -2.39172    0.96202   -1.29748
H     -0.68093   -3.04357    1.14061
H      0.60747   -5.25778    1.37624
H     -3.48856   -5.43475    2.72729
H     -4.90098   -0.44111   -0.88720
H     -4.26915   -1.46402   -2.18305
H      3.06426   -6.44252    5.95830
H      2.35971   -5.15099    6.94107
H     -5.18127   -2.30141    0.60101
H     -5.24478   -3.25707   -0.88541
H      1.56626   -3.92847    5.04014
H      3.19189   -4.45999    4.57127
H      0.93597   -7.38465    5.39637
H      0.77067   -6.96733    7.11180
H     -1.19307   -4.75111   -0.17975
H     -2.12418   -6.23640    0.02576
