14

C      1.80809   -1.07408    0.00637
C      2.94402   -1.67226    2.09658
C      0.79593   -0.47020    0.74330
C      1.88917   -1.04512    2.79041
C      0.80971   -0.43980    2.14067
C      2.86616   -1.66519    0.68930
C      4.08187   -2.30707    2.82655
O      4.19647   -2.36138    4.03646
F     -0.22543    0.10091    0.09057
F      1.89737   -1.01213    4.12164
Cl    -0.46261    0.31937    3.03240
Br     4.22100   -2.47811   -0.39855
H      1.75211   -1.07203   -1.07618
H      4.84945   -2.74458    2.16438
