37

C      1.26563   -4.60271    4.50881
C      1.73778   -3.28769    4.61987
C      1.49355   -5.35267    3.34823
C      3.49501   -8.19218   -2.93428
C      3.84568   -8.63881   -4.21587
C      2.45037   -2.69286    3.56924
C      1.90673  -10.02877   -2.64848
C      2.20326   -4.76156    2.29999
C      2.54194   -8.86484   -2.14493
C      3.20524   -9.77410   -4.68500
C      2.25732  -10.44657   -3.91618
C      2.66382   -3.45410    2.43150
C      2.59401   -5.30101    0.96231
C      2.20296   -8.33545   -0.80474
C      2.34669  -11.42533   -5.92863
C      1.52783   -9.21646    0.22550
N      3.26712   -4.52960    0.15998
N      2.52506   -7.10272   -0.57795
N      2.23535   -6.57628    0.64786
O      2.78759   -1.98509    0.18577
O      4.95484   -2.84442    1.16623
O      3.38313  -10.42861   -5.88139
O      1.79993  -11.55153   -4.60525
S      3.52759   -3.02408    0.90129
H      0.71567   -5.04666    5.33363
H      1.54975   -2.72423    5.52942
H      1.11649   -6.37090    3.28883
H      3.96227   -7.30149   -2.52985
H      4.58851   -8.12043   -4.81353
H      2.82148   -1.67505    3.64285
H      1.15200  -10.57144   -2.09067
H      1.55909  -11.09449   -6.61865
H      2.77805  -12.38049   -6.23505
H      2.05419   -9.15951    1.18590
H      0.48513   -8.91619    0.39099
H      1.52977  -10.26492   -0.06689
H      1.69272   -7.09885    1.32759
