20

C      2.82418   -0.50749    5.33562
C      2.70005    0.89298    5.17276
C      2.29277    1.10420    3.85416
C      2.82269   -0.36464    0.91541
C      1.89067    2.33545    3.10016
C      4.25262   -0.58935    1.34518
C      1.73161   -0.50297    1.98937
N      2.48450   -1.13996    4.21190
N      2.16076   -0.15321    3.32940
O      2.49638   -0.11012   -0.23097
I      3.60415    2.41173    6.45271
H      3.13436   -1.06527    6.20927
H      2.13984    2.26806    2.03757
H      0.80940    2.49762    3.17983
H      2.39271    3.21118    3.51348
H      4.33781   -1.51000    1.93195
H      4.90060   -0.62213    0.46863
H      4.57236    0.22481    2.00548
H      1.42795   -1.55327    2.02101
H      0.86763    0.09220    1.68800
