27

C      1.81966   -0.38027   -0.17501
C      0.90307    0.23659    0.67314
C      2.90912   -1.38048    1.73254
C      2.83606   -1.19749    0.33811
C      2.00885   -0.77812    2.60746
C      0.99483    0.04034    2.06008
C      3.79331   -1.83566   -0.61066
C      2.08802   -0.97408    4.10051
C      4.89323   -2.72430   -0.05102
C     -1.69082    1.92396    3.71013
C     -0.91310    1.44591    2.49655
O      3.70303   -1.65260   -1.82216
O      0.14568    0.60102    2.96857
H      1.76200   -0.23813   -1.24969
H      0.12633    0.86373    0.25098
H      3.68714   -2.00886    2.15679
H      2.22724   -0.01875    4.61768
H      1.16277   -1.41041    4.49154
H      2.91951   -1.63367    4.36239
H      4.47113   -3.56489    0.51034
H      5.53871   -2.16398    0.63410
H      5.49203   -3.10722   -0.87823
H     -2.11199    1.07601    4.25782
H     -1.04227    2.48696    4.38747
H     -2.51155    2.57532    3.39321
H     -0.48753    2.29310    1.94367
H     -1.55888    0.87829    1.81441
