32

C      7.79339   -3.63430    4.82283
C      0.25899   -1.39978    2.69669
C      0.20891   -1.08695    1.33531
C      1.45776   -1.84178    3.25207
C      1.35305   -1.22854    0.54693
C      7.16712   -0.14790    1.65259
C      7.58036    0.84201    0.81011
C      9.49071   -0.30722    1.87581
C      2.61365   -1.97337    2.46196
C      8.26826   -0.83368    2.28723
C      2.57165   -1.67122    1.08184
C      3.84198   -2.44471    3.12567
C      5.87143   -2.66168    3.66889
C      8.28122   -1.90871    3.25223
C      7.31807   -2.67287    3.86022
C      3.76314   -1.82750    0.16394
N      8.21249   -4.40049    5.59423
N      5.12093   -2.02796    2.80408
N      3.80305   -3.29930    4.13102
O      5.14736   -3.44441    4.50071
S      9.31586    0.97453    0.75300
H     -0.62499   -1.29773    3.31997
H     -0.71798   -0.73933    0.88633
H      1.51606   -2.08398    4.30870
H      1.30069   -0.99908   -0.51476
H      6.13339   -0.40622    1.83001
H      6.97043    1.50775    0.21271
H     10.47668   -0.62382    2.19382
H      9.28699   -2.16251    3.57957
H      4.47688   -1.00810    0.29026
H      4.31188   -2.75259    0.35621
H      3.43716   -1.83215   -0.87957
