16

C      0.32290   -1.07551    1.50749
C      2.51460   -6.96147    2.69724
C     -0.87164   -0.97410    0.83181
C      3.28112   -5.90645    3.13944
C     -0.09591   -3.23128    1.25178
C      1.22474   -5.31171    1.98179
C      0.03393   -4.71050    1.31293
N      0.74938   -2.35519    1.73807
N      1.36557   -6.61691    2.05039
O     -0.83789   -5.41160    0.81412
S     -1.49656   -2.53712    0.46404
S      2.53858   -4.40970    2.73287
H      0.92008   -0.23883    1.85295
H      2.76073   -8.01001    2.82745
H     -1.39706   -0.07310    0.54198
H      4.22348   -5.94277    3.67196
