34

C      2.42301    7.63708   -3.81030
C      1.98789    6.57697   -3.04165
C      2.26140    5.59405    0.58102
C      3.51881    2.81280   -0.45505
C      1.74354    1.95309    0.97416
C      2.97247    6.69624    1.09032
C      4.46544    2.15268    0.32195
C      2.68924    1.31553    1.77367
C      3.18490    8.66938   -3.20659
C      2.30733    6.54834   -1.65915
C      3.06229    7.64229   -1.15540
C      2.15646    2.72907   -0.11887
C      1.94070    5.48764   -0.76978
C      3.39197    7.70425    0.23678
C      4.04130    1.41991    1.43547
N      3.49566    8.67967   -1.92228
N      1.14602    3.27042   -0.97346
N      1.11610    4.47509   -1.32903
O      6.57552    1.15757    2.18213
O      4.71762    0.43073    3.78464
O      4.09391    8.76287    0.68797
O      5.26783   -0.92519    1.77489
S      5.25319    0.58718    2.44273
H      2.18920    7.69420   -4.86926
H      1.39906    5.77111   -3.46764
H      1.93736    4.82691    1.27464
H      3.82900    3.39890   -1.31434
H      0.68342    1.87078    1.19543
H      3.19997    6.76535    2.14937
H      5.52307    2.22308    0.08789
H      2.38872    0.74408    2.64600
H      3.54093    9.50788   -3.80284
H      4.25481    9.32859   -0.10003
H      6.12088   -1.03257    1.31156
