26

C      1.91724   -1.05808   -0.06650
C      0.82556   -0.49668    0.58072
C      1.82985   -1.07378    2.71309
C      2.98953   -1.64213    0.63078
C      0.78143   -0.50185    1.98107
C      2.92213   -1.64086    2.03873
C      4.11308   -2.23098   -0.14430
C     -0.40677    0.10068    3.97237
C      3.92331   -2.27089    4.14353
N      3.81629   -2.69829   -1.31991
N      5.40145   -2.17058    0.35083
O      5.00925   -3.17046   -1.95886
O     -0.31908    0.07551    2.55219
O      3.96194   -2.23563    2.71979
H      1.96491   -1.05462   -1.14976
H      0.00847   -0.04458    0.02769
H      1.79703   -1.08468    3.79278
H     -1.34729    0.60198    4.20460
H      0.42318    0.66562    4.41527
H     -0.42503   -0.91354    4.39091
H      4.83448   -2.78541    4.45185
H      3.05278   -2.83184    4.50307
H      3.91578   -1.26043    4.56922
H      5.46948   -2.18407    1.35994
H      6.05055   -2.77871   -0.13557
H      4.65662   -3.56067   -2.77299
