21

C     -0.49369    0.98064   -0.54417
C     -1.86565    0.93082   -0.44383
C      0.17593    2.13407   -1.03202
C     -2.77701    4.33481   -1.71369
C     -4.71834    3.02791   -1.09124
C     -1.98266    3.22654   -1.32934
C     -2.63892    2.05675   -0.83595
C     -0.55380    3.24283   -1.41983
C     -4.14173    4.22498   -1.59075
C      1.39831    4.48863   -2.01730
N     -3.99985    1.98551   -0.72813
O     -0.02027    4.40365   -1.90242
Br    -5.29472    5.67139   -2.08569
H      0.10260    0.12252   -0.24576
H     -2.38567    0.05396   -0.07221
H      1.25794    2.12713   -1.09351
H     -2.30645    5.23513   -2.09150
H     -5.80005    2.94783   -0.99631
H      1.60587    5.48298   -2.41391
H      1.78509    3.73066   -2.70878
H      1.88166    4.37636   -1.03954
