32

C      0.17615   -5.14969    0.50969
C     -0.10292   -1.10530   -0.91669
C     -0.95911   -5.55893   -0.27154
C      0.52373   -1.60049   -2.09966
C      0.13491   -2.04183    0.09942
C     -0.03522   -5.72234    1.73278
C     -1.28055   -5.20324   -1.69011
C      0.58912   -1.01088   -3.47181
C     -0.25956   -2.08282    1.53937
C      0.71536   -5.71290    3.02018
C      1.31362   -4.28300    0.06398
N      1.09987   -2.76733   -1.83129
N     -1.77299   -6.31644    0.42931
N      0.85951   -3.01096   -0.50329
N     -0.83671    0.11147   -0.78595
O     -1.36816    0.36680    0.30893
O     -0.90744    0.85083   -1.78022
O     -1.18805   -6.42735    1.70717
H     -0.43614   -5.42242   -2.34988
H     -2.15597   -5.76219   -2.02613
H     -1.48822   -4.13259   -1.78182
H      1.08167   -0.03503   -3.45366
H      1.14183   -1.68735   -4.12719
H     -0.41398   -0.84765   -3.87508
H     -1.23125   -2.57441    1.65778
H      0.47243   -2.63796    2.13037
H     -0.35177   -1.07013    1.92920
H      0.07530   -5.36091    3.83529
H      1.06080   -6.71933    3.27748
H      1.58750   -5.05886    2.95430
H      1.99924   -4.08685    0.89367
H      1.89061   -4.75086   -0.73635
