32

C     -0.17287   -5.34397    0.20237
C     -0.09883   -0.97276   -0.38454
C     -0.85851   -5.71448    1.40726
C     -0.24003   -1.57515   -1.66849
C      0.42599   -1.94903    0.47576
C     -0.83275   -6.03175   -0.78183
C     -0.58928   -5.26696    2.81146
C     -0.74319   -0.99464   -2.95039
C      0.78135   -1.87005    1.92441
C     -0.67320   -6.11095   -2.26023
C      0.98451   -4.40508    0.04433
N      0.16990   -2.83673   -1.60229
N     -1.83695   -6.55878    1.16417
N      0.57234   -3.04099   -0.30729
N     -0.41750    0.36691   -0.02264
O     -0.22862    0.71648    1.15691
O     -0.86874    1.11446   -0.90497
O     -1.82508   -6.76125   -0.22976
H     -0.80214   -4.20006    2.92926
H     -1.22125   -5.82288    3.50671
H      0.45824   -5.43263    3.08497
H     -0.14042   -0.13376   -3.25189
H     -0.70702   -1.75795   -3.73063
H     -1.76921   -0.63429   -2.83741
H     -0.10747   -1.64824    2.52111
H      1.22671   -2.79750    2.28544
H      1.48007   -1.04775    2.09468
H     -0.47689   -7.14133   -2.57368
H     -1.58887   -5.77524   -2.75693
H      0.14040   -5.46332   -2.58720
H      1.57584   -4.36023    0.95907
H      1.64763   -4.73614   -0.75721
