25

C     -1.31815   -1.61960   -1.34332
C     -1.74420   -2.27815   -0.18837
C     -2.71783   -0.20356    0.61160
C     -1.57877   -0.26102   -1.55192
C     -2.29544    0.41676   -0.55668
C     -2.43711   -1.55898    0.78521
C      1.80041    3.37534   -1.08778
C      0.85059    2.67209   -0.12156
C      0.83949    1.52612   -2.09708
C     -0.53544    1.56905   -2.76298
O      1.47872    2.77678   -2.35279
O      0.76619    1.35872   -0.68889
O     -1.18607    0.28684   -2.74563
F     -2.59508    1.73474   -0.71830
Br    -3.02583   -2.43503    2.38508
H     -0.76760   -2.15333   -2.11219
H     -1.53004   -3.33220   -0.04843
H     -3.26383    0.37154    1.35153
H      1.63574    4.45292   -1.16353
H      2.84961    3.17733   -0.83640
H      1.23712    2.57513    0.89453
H     -0.13707    3.15005   -0.09655
H      1.43608    0.69471   -2.49091
H     -0.40552    1.80117   -3.82172
H     -1.15326    2.34251   -2.30389
