25

C     -0.73908   -0.86041   -7.34964
C     -0.05943   -2.07776   -7.45275
C     -0.04685   -2.25099   -5.02383
C     -0.72411   -1.03213   -4.91857
C     -1.07158   -0.36076   -6.09812
C      0.27093   -2.76031   -6.28186
C      2.85631    1.30429   -3.75898
C      2.35379    2.46846   -2.90230
C      0.85231    0.70012   -2.90503
C     -0.62674    0.71144   -3.26288
O      1.64427    0.61279   -4.07487
O      1.18751    1.92982   -2.25724
O     -1.08622   -0.58868   -3.67152
F     -1.75827    0.80872   -6.01906
Br     1.19496   -4.43794   -6.40312
H     -1.02792   -0.30150   -8.23457
H      0.19826   -2.48373   -8.42463
H      0.22089   -2.77529   -4.11313
H      3.32945    1.60761   -4.69430
H      3.53597    0.65010   -3.19555
H      3.06948    2.78480   -2.13824
H      2.06660    3.33031   -3.51572
H      1.08335   -0.13673   -2.22658
H     -0.81366    1.46852   -4.02714
H     -1.20155    0.95143   -2.36692
