37

C      5.38186   -4.37689   -1.15019
C      5.65028   -3.17769   -0.47838
C      4.19681   -5.08859   -0.92364
C      1.62789  -10.18046   -2.62083
C      2.20218  -10.91547   -3.67523
C      4.73446   -2.66119    0.44909
C      2.62444   -8.10225   -3.43083
C      3.27523   -4.57183   -0.00611
C      1.83005   -8.79799   -2.48034
C      2.97638  -10.21427   -4.57921
C      3.17838   -8.83640   -4.45451
C      3.56899   -3.37846    0.65845
C      1.95201   -5.07778    0.46657
C      1.25545   -8.05089   -1.33998
C      4.37761   -9.56620   -6.20397
C      0.00268   -8.53443   -0.64527
N      1.31690   -4.38527    1.37383
N      1.87781   -6.96766   -0.99724
N      1.36816   -6.22825    0.02810
O      2.67409   -3.11999    3.17761
O      1.50194   -1.80735    1.36215
O      3.60720  -10.67681   -5.70836
O      3.94190   -8.38614   -5.50946
S      2.21621   -3.00945    1.79232
H      6.10628   -4.76593   -1.86029
H      6.57698   -2.64483   -0.67285
H      3.99490   -6.01824   -1.43766
H      1.04143  -10.72183   -1.88632
H      2.04506  -11.98456   -3.77367
H      4.93013   -1.73748    0.98531
H      2.76352   -7.03004   -3.35738
H      5.44036   -9.74205   -5.99355
H      4.19141   -9.44733   -7.27353
H      0.19492   -8.77367    0.40777
H     -0.77573   -7.76166   -0.67507
H     -0.41571   -9.41732   -1.12460
H      0.47770   -6.45393    0.46810
