15   

C        2.3735518359   -0.8682187565   -1.0115462200
C        1.3057966043   -1.3292230266   -0.2891817577
C        3.4829494026   -1.6362979520   -1.7090710822
C       -0.8572754027   -0.4581750766   -1.1956073680
C       -0.0969922014   -1.7006085788   -0.7412463602
H        2.7543765274    0.0793900242   -0.6454422104
H        1.2943011848   -0.9854546618    0.7397280807
H        4.3819943051   -1.0183529942   -1.7919987725
H        3.1610976403   -1.9269234784   -2.7132611524
H        3.7274289868   -2.5397569039   -1.1427145212
H       -0.3416435427    0.0202409454   -2.0339626133
H       -0.9343499363    0.2587938835   -0.3719105256
H       -1.8673363616   -0.7332214039   -1.5142196495
H       -0.6345857976   -2.1731953842    0.0870452600
H       -0.0376885884   -2.4217859844   -1.5626701361
15   

C        2.4056407375   -0.8120111949   -0.9165608482
C        1.3162227935   -1.2303407743   -0.2171538569
C        3.3824520756   -1.6530253005   -1.7135338488
C       -0.8744007456   -0.4707608699   -1.1469923980
C       -0.0284022049   -1.6789077656   -0.7560494253
H        2.9116263303    0.0285613655   -0.4534322345
H        1.2399763251   -0.8349699822    0.7902970608
H        3.3330584835   -1.3801554238   -2.7716407240
H        3.1386518922   -2.7149616598   -1.6127293649
H        4.4029974665   -1.4916183217   -1.3537932197
H       -0.3686611027    0.1133599444   -1.9221866509
H       -1.0448010502    0.1698880009   -0.2759087789
H       -1.8436354428   -0.8014911086   -1.5324826328
H       -0.5521475096   -2.2623445787    0.0078643856
H        0.1227306856   -2.3215899331   -1.6293559507
15   

C        2.4586566581   -0.7799995848   -0.8202286628
C        1.3375753500   -1.1406327736   -0.1543898557
C        3.3012202945   -1.6572509270   -1.7196575644
C       -0.8889094898   -0.4954329448   -1.0774671837
C        0.0474580380   -1.6562206776   -0.7552464257
H        3.0362798788   -0.0003301997   -0.3350076381
H        1.2096875963   -0.6934105397    0.8257691627
H        3.2221658181   -1.3146690026   -2.7554959578
H        2.9619199164   -2.6961963177   -1.6657627575
H        4.3504395661   -1.6153337903   -1.4125381758
H       -0.4183739164    0.1826057936   -1.7965258662
H       -1.1282331930    0.0641071899   -0.1677184405
H       -1.8196432178   -0.8744922003   -1.5104631298
H       -0.4374275085   -2.3381094222   -0.0494997973
H        0.2642413763   -2.2152471524   -1.6712678448
15   

C        2.5138212965   -0.7852841050   -0.7248321681
C        1.3526283772   -1.0710969314   -0.1035017083
C        3.2401527660   -1.6516475141   -1.7252620886
C       -0.8787254656   -0.5176974863   -1.0639892173
C        0.1027505786   -1.6384091936   -0.7347261905
H        3.1500033427   -0.0738021851   -0.2091066093
H        1.1980529899   -0.5966421639    0.8598417569
H        3.1347072620   -1.2309007844   -2.7294965757
H        2.8315544117   -2.6666930971   -1.7230050495
H        4.3037834811   -1.7044071869   -1.4746331777
H       -0.4253293471    0.1874112060   -1.7679356279
H       -1.1603708322    0.0218912419   -0.1543579148
H       -1.7829091785   -0.9337911633   -1.5187382769
H       -0.3641123563   -2.3482191469   -0.0445569672
H        0.3576825607   -2.1781582059   -1.6522570073
15   

C        2.5561628544   -0.8140512040   -0.6487534651
C        1.3571190314   -1.0128242777   -0.0739639107
C        3.1924969110   -1.6343942060   -1.7421561437
C       -0.8451434211   -0.5312426576   -1.1269050083
C        0.1331565492   -1.6246623341   -0.7090658792
H        3.2375441597   -0.1717057751   -0.1010541364
H        1.1934789567   -0.5263067060    0.8817980291
H        3.0576140950   -1.1385496582   -2.7078517494
H        2.7450402684   -2.6314975889   -1.7895959137
H        4.2637437208   -1.7466652185   -1.5507117412
H       -0.3769476234    0.1369005509   -1.8566831575
H       -1.1545774407    0.0559390553   -0.2565845627
H       -1.7343538068   -0.9786750424   -1.5814805230
H       -0.3502902796   -2.2957719315    0.0078913931
H        0.4119843639   -2.2158487841   -1.5865598351
15   

C        2.5950509397   -0.8605971049   -0.5973056442
C        1.3552621282   -0.9499445984   -0.0894228483
C        3.1754760651   -1.6369920841   -1.7499758663
C       -0.8785906378   -0.5409449347   -1.1028343740
C        0.1460719659   -1.6006631993   -0.7101709436
H        3.3039294912   -0.2763224774   -0.0202594777
H        1.1797311246   -0.4213664149    0.8415896202
H        3.0192420714   -1.0910965214   -2.6850023186
H        2.7075924353   -2.6224047745   -1.8301917072
H        4.2499417833   -1.7792603986   -1.6013239039
H       -0.4473330757    0.1486490247   -1.8354662409
H       -1.1950376082    0.0286173540   -0.2234378268
H       -1.7581090944   -1.0176423017   -1.5464573672
H       -0.3009472177   -2.2937543152    0.0095016133
H        0.4283747046   -2.1749069993   -1.5974145137
15   

C        2.6215789214   -0.9209637067   -0.5384793496
C        1.3553191364   -0.8997938485   -0.0946607957
C        3.1620882680   -1.6334934833   -1.7499135504
C       -0.8295595789   -0.5455147954   -1.2309724754
C        0.1518582677   -1.5814066917   -0.6922834593
H        3.3364029305   -0.3266787764    0.0207189855
H        1.1745453334   -0.3306696428    0.8110715879
H        4.0926207258   -1.1607747727   -2.0777337451
H        2.4456442898   -1.5902334709   -2.5754349095
H        3.3656878739   -2.6809177276   -1.5086765844
H       -0.3559811061    0.0545749104   -2.0142412036
H       -1.1605335985    0.1189306415   -0.4265232608
H       -1.7063405893   -1.0458007861   -1.6535802860
H       -0.3411642888   -2.1805510206    0.0798069131
H        0.4504920236   -2.2598682996   -1.4969429824
15   

C        2.6382275601   -0.9874289253   -0.4970521143
C        1.3537414163   -0.8493666195   -0.1314755761
C        3.1723854545   -1.6360527949   -1.7471626238
C       -0.8576544048   -0.5480902505   -1.2345695942
C        0.1500260188   -1.5587287161   -0.6965001268
H        3.3644631203   -0.4463219390    0.1001599874
H        1.1705984927   -0.2399308709    0.7471715871
H        4.1017326649   -1.1472968520   -2.0542394744
H        2.4520844335   -1.5501043014   -2.5660789158
H        3.3761983125   -2.6947379860   -1.5617593594
H       -0.4083372525    0.0453753854   -2.0369258414
H       -1.1848147933    0.1250658665   -0.4358446405
H       -1.7337353630   -1.0697625127   -1.6320919369
H       -0.3202226952   -2.1512790087    0.0946611700
H        0.4453764025   -2.2465273237   -1.4945503486
15   

C        2.6493203642   -1.0582482440   -0.4696822067
C        1.3591320631   -0.8036372281   -0.1897052184
C        3.2062787545   -1.6417884333   -1.7433231483
C       -0.9065926932   -0.5466122422   -1.1970118465
C        0.1462692589   -1.5359306173   -0.7078342462
H        3.3754957798   -0.5662049624    0.1686577346
H        1.1769303107   -0.1409644258    0.6497670324
H        4.1432767207   -1.1419010601   -2.0060977178
H        2.5010098622   -1.5098711747   -2.5693436048
H        3.4018889021   -2.7099298923   -1.6109994506
H       -0.5054164974    0.0605505057   -2.0145248801
H       -1.2157607632    0.1151617145   -0.3818520429
H       -1.7860492633   -1.0870866632   -1.5605705879
H       -0.2763596104   -2.1440066447    0.0982891916
H        0.4252728561   -2.2104866347   -1.5231654931
15   

C        2.6547186892   -1.1314100546   -0.4575390815
C        1.3706826846   -0.7701340745   -0.2670733459
C        3.2662222370   -1.6460291784   -1.7389919245
C       -0.9574220505   -0.5447883784   -1.1445954903
C        0.1383665772   -1.5181182867   -0.7216335366
H        3.3674170917   -0.6840532769    0.2272217415
H        1.1955287937   -0.0467803159    0.5223637628
H        4.2125886554   -1.1337343659   -1.9361597225
H        2.5929346246   -1.4701956415   -2.5834797265
H        3.4567608591   -2.7200970405   -1.6569965360
H       -0.6126192986    0.0741337640   -1.9788919324
H       -1.2332821385    0.1064761199   -0.3093631486
H       -1.8456324654   -1.0989621208   -1.4635514555
H       -0.2273290068   -2.1412670757    0.1006727502
H        0.3863824677   -2.1783224350   -1.5587860724
15   

C        2.6322763615   -1.2128152787   -0.4682338122
C        1.3606485415   -0.7654941447   -0.3585020237
C        3.3354913951   -1.6467012173   -1.7357276380
C       -1.0253489070   -0.5335293619   -1.0825653436
C        0.0932923599   -1.5084043168   -0.7276899144
H        3.3149257623   -0.8077285307    0.2713290361
H        1.2062403564    0.0171470984    0.3769385535
H        4.2890185513   -1.1200435133   -1.8375921799
H        2.7170083370   -1.4232848693   -2.6104077333
H        3.5276319977   -2.7231777161   -1.7063577671
H       -0.7334477155    0.0809998789   -1.9400175782
H       -1.2456627247    0.1217701667   -0.2341746731
H       -1.9334364309   -1.0866299797   -1.3418434493
H       -0.2188506477   -2.1308174695    0.1169620197
H        0.2875116777   -2.1682150879   -1.5794526129
15   

C        2.6108296485   -1.2923018076   -0.5147432211
C        1.3471520620   -0.7909623224   -0.4775920429
C        3.4428644883   -1.6432349386   -1.7320459790
C       -1.0947081684   -0.5178061133   -0.9959410705
C        0.0363365049   -1.5098985856   -0.7402647845
H        3.2412702591   -0.9162578220    0.2842186488
H        1.2234351264    0.0603599977    0.1837112800
H        4.3928452899   -1.1009318301   -1.7110589093
H        2.9064319450   -1.3760152576   -2.6475692060
H        3.6489916574   -2.7173865438   -1.7464014472
H       -0.8666446073    0.0969759231   -1.8724209057
H       -1.2350726789    0.1360293142   -0.1296973062
H       -2.0286946838   -1.0572550016   -1.1814642599
H       -0.2115257206   -2.1367532010    0.1222296700
H        0.1494366758   -2.1635604487   -1.6111694093
15   

C        2.5863756649   -1.3695261418   -0.5843765006
C        1.3240329274   -0.8417411049   -0.6107319495
C        3.5568764243   -1.6376178147   -1.7219315120
C       -1.1540899869   -0.4992600805   -0.9074752196
C       -0.0303147194   -1.5212723827   -0.7560024768
H        3.1357737428   -1.1071083449    0.3136622009
H        1.2375866070    0.0725289949   -0.0328659361
H        3.4472926510   -0.8730538275   -2.4966697790
H        3.3529484608   -2.6174057982   -2.1633791700
H        4.5879383084   -1.6233689507   -1.3562315428
H       -0.9884412666    0.1138189604   -1.7990924218
H       -1.2012542546    0.1535610432   -0.0304952855
H       -2.1142708250   -1.0139340206   -1.0118003614
H       -0.2163152228   -2.1498876773    0.1206429491
H       -0.0133248819   -2.1696634637   -1.6378665928
