46   

C       -4.9398959535   -4.3107561733   -2.6842628008
C       -5.6835994895   -3.1492227002   -2.3965465788
C       -3.6472847634   -4.4745154696   -2.1575003547
C       -0.7753713290   -4.2041182282   -0.5897278540
C       -5.1382245074   -2.1398397944   -1.5848880708
C        0.3246898571   -3.8093986672    0.1945535379
C       -0.7772647637   -1.7157364642    0.7282084383
C       -3.1321341197   -3.4579665215   -1.3525819159
C       -1.8649416637   -3.3381057321   -0.6708042156
C       -3.8537516597   -2.3085199275   -1.0721893109
C       -1.8709631069   -2.1190650763   -0.0234035612
C        0.3274403470   -2.5701716267    0.8696003058
C       -0.1084061260   -3.1251394207    4.9941236752
C        0.2579546895   -2.4908658047    3.8338772789
C       -1.3307651384   -4.0965065751    5.1166006759
C        0.2236430937   -3.4707250547    7.4023729716
C       -1.0815867712   -1.5129928478    6.5995367829
C       -1.1561294679   -4.1538197168    7.5604012918
C       -2.3701053688   -2.3607530372    6.4438827504
C        0.1622354788   -2.3892441940    6.3001080965
C        1.4290192047   -2.8409161203    2.9444572364
N       -3.0872286315   -1.4670824680   -0.2547255775
N       -2.0017133454   -3.7962364950    6.4016250280
O        1.3864653098   -2.1891579353    1.6612652562
F       -0.3282697663   -1.2888904242    3.6192335797
H       -5.3680054605   -5.0817407084   -3.3144045259
H       -6.6817509593   -3.0311535506   -2.8031582772
H       -3.0657186953   -5.3630039594   -2.3695502757
H       -0.7826250669   -5.1535871095   -1.1110013597
H       -5.7025168356   -1.2441336171   -1.3582392221
H        1.1861124875   -4.4589938821    0.2819043611
H       -0.7843844900   -0.7535721094    1.2214348364
H       -2.0191318081   -3.9373265472    4.2792162858
H       -0.9941456785   -5.1380816410    5.0900426994
H        0.5279198621   -3.0411677790    8.3618587313
H        0.9731342576   -4.2151582168    7.1170695336
H       -1.1380851530   -0.6421220492    5.9399488892
H       -1.0079395634   -1.1373031729    7.6247313241
H       -1.0350932970   -5.2386005074    7.6446083495
H       -1.6425582509   -3.7999235648    8.4760527941
H       -3.0648995507   -2.1494555554    7.2632572520
H       -2.8740700563   -2.0932249922    5.5079839222
H        1.0844322142   -1.7997861734    6.2639856264
H        1.4528791726   -3.9255521968    2.8026816639
H        2.3537116119   -2.5593709870    3.4561650255
H       -3.3596716183   -0.5643459943    0.1158147002
46   

C       -5.0732650445   -4.2355027035   -2.3746838080
C       -5.7857530636   -3.0653534933   -2.0459595844
C       -3.7645132809   -4.4260639107   -1.8999104721
C       -0.8244999475   -4.2129356318   -0.4625710796
C       -5.1937360108   -2.0752382479   -1.2430392263
C        0.3195923854   -3.8387867396    0.2652307089
C       -0.7345101110   -1.7462890711    0.8957403439
C       -3.2027214146   -3.4277668595   -1.1034194744
C       -1.9065754911   -3.3343959156   -0.4753411945
C       -3.8944025111   -2.2714842493   -0.7798609908
C       -1.8678499968   -2.1253187085    0.1905380953
C        0.3701924187   -2.6099424287    0.9553451803
C       -0.0444380143   -3.0815836873    4.9806327521
C        0.4110045791   -2.4188457199    3.8819365255
C       -1.1677434850   -4.1601487085    4.9258018603
C       -0.0492336018   -3.4148542847    7.4142744425
C       -1.4055992431   -1.5845755759    6.4175280978
C       -1.3647670870   -4.2282978475    7.3669965557
C       -2.5653614854   -2.5513833631    6.0702731344
C       -0.0511304460   -2.3326115418    6.3103748505
C        1.5446932858   -2.8426310824    2.9861214424
N       -3.0832667274   -1.4534229811    0.0185977222
N       -2.0546755055   -3.9428612994    6.0910433779
O        1.4815924495   -2.2486268228    1.6781924887
F        0.1071337965   -1.0989474122    3.8098220634
H       -5.5374710415   -4.9920078475   -2.9968122816
H       -6.7959096676   -2.9257683672   -2.4142509590
H       -3.2057753221   -5.3207361933   -2.1450150879
H       -0.8680716050   -5.1541207564   -0.9970158134
H       -5.7337548258   -1.1728388064   -0.9859997846
H        1.1799832333   -4.4950732691    0.2954637465
H       -0.7049341418   -0.7937157969    1.4066800970
H       -1.7337418609   -4.0619063529    3.9926653887
H       -0.7318918678   -5.1641601227    4.9557305158
H        0.0668335995   -2.9690120155    8.4069710129
H        0.8025446355   -4.0809844281    7.2460997556
H       -1.4494663293   -0.7143400676    5.7563592060
H       -1.5229541453   -1.2179067348    7.4419531283
H       -1.1546313894   -5.2972065991    7.4754336198
H       -2.0156731916   -3.9296486648    8.1960993660
H       -3.3942441647   -2.4174281736    6.7729154056
H       -2.9437618452   -2.3240997392    5.0669850149
H        0.8049897867   -1.6573548099    6.4136037087
H        1.5400353323   -3.9330512203    2.8951992503
H        2.4890190977   -2.5582644274    3.4590823188
H       -3.3237266475   -0.5474720914    0.4031552106
46   

C       -5.2508514961   -4.2848337105   -1.5870028151
C       -5.8910781105   -3.0778502573   -1.2431586800
C       -3.9024888992   -4.4925142263   -1.2519567366
C       -0.8202248493   -4.3078159891   -0.1623304895
C       -5.1867859558   -2.0679268879   -0.5649702422
C        0.4051881068   -3.9418995394    0.4207314641
C       -0.5105697612   -1.7848562021    1.0532286118
C       -3.2292958322   -3.4741233455   -0.5772435735
C       -1.8701166646   -3.3933564868   -0.1019874528
C       -3.8490388642   -2.2817774395   -0.2396657011
C       -1.7240076684   -2.1557525225    0.4929039996
C        0.5651771315   -2.6873054801    1.0406998887
C        0.0453360488   -3.0035219940    4.7951685011
C        0.6983427582   -2.2921703824    3.8500364341
C       -0.9530312085   -4.1334364092    4.4228087182
C       -0.5887823140   -3.4304319859    7.1339080404
C       -1.7110068371   -1.6199826386    5.8431044605
C       -1.8046871446   -4.2900757470    6.7154729729
C       -2.6860022800   -2.6226085005    5.1733261663
C       -0.3453160157   -2.3096882230    6.0975378582
C        1.8570660085   -2.7497179995    3.0145357284
N       -2.9314813495   -1.4523397540    0.4201507784
N       -2.1331139662   -3.9920999604    5.3056202055
O        1.7544639220   -2.3478676240    1.6368970309
F        0.6124315200   -0.9403660682    3.9401892226
H       -5.8013542024   -5.0569671851   -2.1119033773
H       -6.9325853784   -2.9255504024   -1.5028915669
H       -3.3978762337   -5.4155241871   -1.5092425737
H       -0.9493813676   -5.2709323877   -0.6408413190
H       -5.6710712211   -1.1375124953   -0.2971913949
H        1.2439531137   -4.6259931007    0.3966259966
H       -0.3963572699   -0.8126590452    1.5134347065
H       -1.2523150408   -4.0374032726    3.3726512361
H       -0.4857231899   -5.1145694655    4.5560748127
H       -0.7615268789   -3.0176722474    8.1326187170
H        0.3067464197   -4.0575393241    7.1821938385
H       -1.6102630428   -0.7351014299    5.2077160147
H       -2.1203054116   -1.2880976201    6.8022307697
H       -1.5853663169   -5.3531859082    6.8574105163
H       -2.6688363538   -4.0401765267    7.3408079118
H       -3.6799283400   -2.5454993095    5.6258182785
H       -2.7884120777   -2.3799077737    4.1090422134
H        0.4193998377   -1.6079109381    6.4473034289
H        1.9433447188   -3.8386888624    3.0765031979
H        2.7745017923   -2.3245419928    3.4318662280
H       -3.1014149916   -0.5189592380    0.7756028034
46   

C       -5.3154486524   -4.1707509348   -1.1885032842
C       -5.9023791685   -2.9274413474   -0.8810201735
C       -3.9629392294   -4.4083549081   -0.8929797473
C       -0.8386294690   -4.2796948291    0.0714084947
C       -5.1405115188   -1.9114118555   -0.2781640123
C        0.4179608990   -3.9326208408    0.5958419633
C       -0.4016157403   -1.7188446302    1.1631135642
C       -3.2319618267   -3.3828036913   -0.2936091567
C       -1.8542183562   -3.3271776431    0.1274661139
C       -3.7992327198   -2.1556117358    0.0092593052
C       -1.6454906332   -2.0700626243    0.6596356865
C        0.6407026680   -2.6599495344    1.1562453981
C        0.0723572129   -2.9022612551    4.7863202172
C        0.8234201134   -2.1882043054    3.9294956839
C       -0.7448597660   -4.1296113697    4.3217175223
C       -0.8688871112   -3.3097829774    7.0234342973
C       -1.9180383363   -1.6490293820    5.4830904008
C       -1.9242752802   -4.2917107644    6.4646173524
C       -2.6979592873   -2.7621055221    4.7335565584
C       -0.5623161533   -2.2062176452    5.9859266720
C        1.9716149692   -2.6812360186    3.1053909848
N       -2.8308935226   -1.3290078681    0.5963920186
N       -2.0544984700   -4.0700384675    5.0093544738
O        1.8559355191   -2.3441569308    1.7109214942
F        0.8078412920   -0.8386358852    4.0778072819
H       -5.9101659407   -4.9478671770   -1.6545448899
H       -6.9473627682   -2.7520389418   -1.1104082139
H       -3.4987614736   -5.3594862898   -1.1226055569
H       -1.0175778835   -5.2579295369   -0.3578933130
H       -5.5839245267   -0.9533092452   -0.0388010537
H        1.2311888512   -4.6470460873    0.5761919825
H       -0.2382859956   -0.7342283046    1.5804986392
H       -0.8899842706   -4.0969792014    3.2363015887
H       -0.2181263861   -5.0567099317    4.5701781642
H       -1.2303572655   -2.8822860533    7.9637273957
H        0.0587866551   -3.8496509794    7.2371916522
H       -1.7775012765   -0.7939440227    4.8147382556
H       -2.4982420539   -1.3041153565    6.3444614273
H       -1.6362493143   -5.3245215668    6.6857865842
H       -2.8933821845   -4.1053507099    6.9402456469
H       -3.7488859036   -2.7611461229    5.0403761069
H       -2.6697556584   -2.5688077052    3.6545398748
H        0.0779069744   -1.4293084459    6.4172645916
H        2.0633118274   -3.7657751136    3.2166972757
H        2.8923256529   -2.2350088323    3.4925743348
H       -2.9553126548   -0.3731622849    0.9084564716
46   

C       -5.3340797094   -4.0750175566   -0.9886810617
C       -5.8837813493   -2.8144016224   -0.6829309732
C       -3.9793906267   -4.3394651171   -0.7280227301
C       -0.8278883619   -4.2708268883    0.1496341863
C       -5.0824300971   -1.8080665216   -0.1160270985
C        0.4477287033   -3.9494744274    0.6438673945
C       -0.3060258619   -1.7109869283    1.2059685550
C       -3.2086480702   -3.3227640995   -0.1644387321
C       -1.8191653257   -3.2938875968    0.2190179184
C       -3.7394654387   -2.0791667157    0.1375452515
C       -1.5680692682   -2.0362615553    0.7311812558
C        0.7118835181   -2.6786503933    1.1906140135
C        0.0908095355   -2.8309921465    4.7378695807
C        0.9350982890   -2.1521042421    3.9520650036
C       -0.5806171267   -4.1446485638    4.2934376684
C       -1.0080961845   -3.1502820066    6.9144829805
C       -2.0354267946   -1.7019704814    5.1539845928
C       -1.9120763260   -4.2686460222    6.3480686054
C       -2.6720961404   -2.9346870225    4.4575522010
C       -0.6976467251   -2.1038942308    5.8211576469
C        2.0568476512   -2.7030735235    3.1317737339
N       -2.7371111583   -1.2681534816    0.6882389519
N       -1.9416582204   -4.1566883281    4.8748395267
O        1.9416030475   -2.3930725019    1.7301159061
F        0.9890926411   -0.8059654468    4.1193851904
H       -5.9592676040   -4.8447932458   -1.4262075498
H       -6.9306280065   -2.6182690396   -0.8855765407
H       -3.5437335504   -5.3043725866   -0.9561729446
H       -1.0400696320   -5.2490927398   -0.2642306871
H       -5.4973299889   -0.8369450607    0.1220325618
H        1.2421585607   -4.6845029034    0.6163005704
H       -0.1109021181   -0.7274568746    1.6121784944
H       -0.6417342951   -4.1887993387    3.2014277717
H       -0.0029435615   -5.0068422220    4.6421524880
H       -1.4963924398   -2.6881763011    7.7779434387
H       -0.0626772663   -3.5817645826    7.2577750524
H       -1.8840768000   -0.9084026039    4.4154617042
H       -2.7137971340   -1.3185030208    5.9222567931
H       -1.5427169005   -5.2497908398    6.6637947680
H       -2.9304622796   -4.1544210891    6.7350864271
H       -3.7355495625   -3.0034932060    4.7085336519
H       -2.5981128292   -2.8232956476    3.3695727805
H       -0.1651911663   -1.2454356358    6.2438510096
H        2.1135933507   -3.7873334022    3.2660127119
H        2.9957973662   -2.2808875115    3.5017742519
H       -2.8306868335   -0.3053356242    0.9896806835
46   

C       -5.3436703070   -4.0084934104   -0.9206774226
C       -5.8818443087   -2.7467661275   -0.5995041913
C       -3.9887601226   -4.2846781166   -0.6736131794
C       -0.8310463085   -4.2476291257    0.1830596724
C       -5.0687906246   -1.7512308217   -0.0301503379
C        0.4484040164   -3.9430194824    0.6781026838
C       -0.2852389816   -1.7054849207    1.2701521563
C       -3.2061358774   -3.2783575226   -0.1076096105
C       -1.8139626767   -3.2634797881    0.2670281745
C       -3.7257961711   -2.0340562593    0.2103384138
C       -1.5505585555   -2.0135856624    0.7920906009
C        0.7238095590   -2.6821416973    1.2425064206
C        0.0198144401   -2.7816915830    4.7021298551
C        0.9684981790   -2.1428781310    4.0141347351
C       -0.5457466590   -4.1485617378    4.2871496063
C       -1.1902568800   -3.0200590500    6.8248159002
C       -2.1892675556   -1.7659215344    4.9037605929
C       -1.9610230030   -4.2467415462    6.2863939652
C       -2.7247899103   -3.0857512075    4.2877882050
C       -0.8777565862   -2.0322822088    5.6795241285
C        2.0605530756   -2.7410842757    3.1884881942
N       -2.7138790435   -1.2360266625    0.7626173381
N       -1.9284548980   -4.2230905480    4.8089937295
O        1.9548341159   -2.4163617056    1.7891932160
F        1.1058444209   -0.8103190370    4.2310233493
H       -5.9780049914   -4.7700806199   -1.3594482265
H       -6.9289144112   -2.5415476450   -0.7918872224
H       -3.5621563218   -5.2508728079   -0.9132464543
H       -1.0528138781   -5.2195045278   -0.2407972169
H       -5.4750576753   -0.7795038180    0.2200579627
H        1.2360428097   -4.6849035162    0.6406392345
H       -0.0812747923   -0.7296530605    1.6904381891
H       -0.5536596396   -4.2433487450    3.1973380822
H        0.0664149413   -4.9565512727    4.7007840467
H       -1.7764857070   -2.5366505581    7.6123383386
H       -0.2446619561   -3.3481139001    7.2676745496
H       -2.0250901810   -1.0359167624    4.1048557978
H       -2.9330037709   -1.3497352786    5.5900664289
H       -1.5193586816   -5.1700508821    6.6753845277
H       -3.0025981398   -4.2073778573    6.6230873977
H       -3.7865899403   -3.2086959431    4.5247915574
H       -2.6352103470   -3.0483781306    3.1965181738
H       -0.4325072851   -1.1119210695    6.0708558760
H        2.0698159393   -3.8275681292    3.3153917668
H        3.0191723583   -2.3649739002    3.5577949992
H       -2.7981455725   -0.2751895419    1.0731091313
46   

C       -5.3046998763   -3.9153231471   -0.9111452064
C       -5.8511667808   -2.6653032017   -0.5597354460
C       -3.9496377851   -4.1909565116   -0.6641391982
C       -0.7961183749   -4.1594099651    0.2076082000
C       -5.0464613789   -1.6812377043    0.0406183091
C        0.4796550609   -3.8612229601    0.7157833726
C       -0.2701375746   -1.6469371392    1.3718085927
C       -3.1752635511   -3.1959698254   -0.0673373116
C       -1.7849984151   -3.1836432339    0.3148201666
C       -3.7033436137   -1.9635765801    0.2813387231
C       -1.5312479997   -1.9476229954    0.8767771435
C        0.7450998836   -2.6154643489    1.3178649864
C       -0.0028377117   -2.7530021831    4.6956960894
C        1.0371959478   -2.1471676133    4.1228195099
C       -0.5016654952   -4.1467393051    4.2982092098
C       -1.2642583392   -2.9508398402    6.7877784442
C       -2.2598088560   -1.8279035708    4.7864328160
C       -1.9390134958   -4.2461413186    6.2809175220
C       -2.7336074339   -3.1972406981    4.2332491313
C       -0.9623734510   -1.9999856608    5.6093393545
C        2.0892857727   -2.7516442303    3.2521537754
N       -2.6988199064   -1.1757685805    0.8612065222
N       -1.8865392643   -4.2718694814    4.8037480479
O        1.9731051346   -2.3553734535    1.8730394968
F        1.2599869123   -0.8479209688    4.4431095003
H       -5.9327524296   -4.6681982812   -1.3734337475
H       -6.8981900404   -2.4602978432   -0.7527534271
H       -3.5168693200   -5.1483174937   -0.9271020030
H       -1.0104176802   -5.1201313401   -0.2446459189
H       -5.4592853453   -0.7185787756    0.3140947660
H        1.2720099750   -4.5968321256    0.6589706523
H       -0.0731222951   -0.6837162854    1.8234035828
H       -0.4906529605   -4.2614457417    3.2106009723
H        0.1384922830   -4.9198179518    4.7355255135
H       -1.9109322083   -2.4657270834    7.5253615434
H       -0.3218852102   -3.2008838296    7.2851070963
H       -2.0949563060   -1.1394531509    3.9518789267
H       -3.0379547345   -1.3987991751    5.4249187971
H       -1.4377245746   -5.1221834197    6.7054543632
H       -2.9848336429   -4.2708614008    6.6054567557
H       -3.7875808080   -3.3586792379    4.4818663599
H       -2.6501622095   -3.2053469218    3.1411364547
H       -0.5758521781   -1.0417888838    5.9702805476
H        2.0567144450   -3.8423520203    3.3279423447
H        3.0689673530   -2.4334228045    3.6206593121
H       -2.7897439442   -0.2233614961    1.1949393575
46   

C       -5.2925545518   -3.9060203870   -0.8973868148
C       -5.8466888077   -2.6598836038   -0.5442841342
C       -3.9376059781   -4.1764129485   -0.6438187535
C       -0.7879835424   -4.1320825099    0.2415422565
C       -5.0498855518   -1.6746280069    0.0646058868
C        0.4851605316   -3.8282679654    0.7529376024
C       -0.2794774846   -1.6227226092    1.4209307305
C       -3.1710749710   -3.1802473729   -0.0386933623
C       -1.7825988150   -3.1624467825    0.3502207644
C       -3.7068561930   -1.9518573641    0.3120388266
C       -1.5375585283   -1.9277285996    0.9192677302
C        0.7421152930   -2.5833106216    1.3610970677
C        0.0000738731   -2.7347263992    4.6686878108
C        1.1155808095   -2.1791700369    4.1964196801
C       -0.4690687953   -4.1504685371    4.3220834429
C       -1.2605381834   -2.8613142618    6.7618735565
C       -2.2834704278   -1.8591187694    4.7138492422
C       -1.8945305207   -4.1992410119    6.3149532640
C       -2.7252291440   -3.2629961580    4.2266708855
C       -0.9814309370   -1.9596096017    5.5399281011
C        2.1185481442   -2.7777118385    3.2653378499
N       -2.7091452911   -1.1617225346    0.9004443742
N       -1.8481295501   -4.2887319060    4.8396338927
O        1.9691794571   -2.3124668939    1.9122267048
F        1.4242457941   -0.9286296070    4.6209914836
H       -5.9145975452   -4.6598146543   -1.3663064413
H       -6.8934764564   -2.4587707764   -0.7427336918
H       -3.4990956569   -5.1307009163   -0.9084427906
H       -0.9955477245   -5.0917328195   -0.2161444340
H       -5.4686987351   -0.7148727058    0.3392127696
H        1.2823382369   -4.5582656089    0.6917580248
H       -0.0882640537   -0.6616244815    1.8794074765
H       -0.4613848818   -4.3010799256    3.2388340811
H        0.1905899289   -4.8939585908    4.7812264015
H       -1.9250563278   -2.3604587740    7.4725681914
H       -0.3140739746   -3.0593483453    7.2747348477
H       -2.1367668289   -1.2059177915    3.8487223951
H       -3.0710014659   -1.4194387682    5.3333752777
H       -1.3621180388   -5.0389628135    6.7736789179
H       -2.9371607412   -4.2446034115    6.6473539784
H       -3.7731638254   -3.4393839366    4.4902187537
H       -2.6483266048   -3.3181409862    3.1354416563
H       -0.6226896644   -0.9742187989    5.8526529594
H        2.0519677982   -3.8691246363    3.2933465997
H        3.1201550499   -2.5089940119    3.6138404846
H       -2.8063938808   -0.2105231652    1.2358248982
46   

C       -5.2813322365   -3.9127703373   -0.9100943390
C       -5.8488737025   -2.6705390168   -0.5646620394
C       -3.9274776082   -4.1729017640   -0.6402113776
C       -0.7883705554   -4.1036352060    0.2811855028
C       -5.0666186670   -1.6789102344    0.0526580225
C        0.4772125711   -3.7888566795    0.8046887280
C       -0.3118724605   -1.5895709734    1.4641933052
C       -3.1754921647   -3.1705870433   -0.0268915712
C       -1.7916584139   -3.1418271631    0.3781347094
C       -3.7245137883   -1.9459274541    0.3160945570
C       -1.5623418340   -1.9047466863    0.9487033011
C        0.7182278138   -2.5407383877    1.4139610070
C       -0.0201056039   -2.7347197210    4.6488055514
C        1.1621831207   -2.2359145174    4.2843712894
C       -0.4793174351   -4.1647185064    4.3503376634
C       -1.2741262436   -2.7903554719    6.7444867442
C       -2.3196972219   -1.8811634368    4.6684046289
C       -1.8935556020   -4.1525341510    6.3516803823
C       -2.7445055336   -3.3061674463    4.2322208293
C       -1.0106051466   -1.9344115367    5.4865061044
C        2.1244424563   -2.7991456767    3.2889300793
N       -2.7395868229   -1.1476782553    0.9149007387
N       -1.8541038705   -4.2982134251    4.8801877340
O        1.9383057695   -2.2531066462    1.9717413421
F        1.5447900888   -1.0552453321    4.8308400289
H       -5.8922144719   -4.6714248190   -1.3858265603
H       -6.8947129175   -2.4773435188   -0.7756864785
H       -3.4788963832   -5.1240929270   -0.8990143630
H       -0.9835039919   -5.0651065756   -0.1781653624
H       -5.4958299300   -0.7220663079    0.3213484709
H        1.2809243159   -4.5120940093    0.7497348609
H       -0.1324551659   -0.6272533880    1.9247053183
H       -0.4770164967   -4.3479063876    3.2719900509
H        0.1900687469   -4.8880739407    4.8272755478
H       -1.9422966242   -2.2701897357    7.4376493712
H       -0.3236548692   -2.9567899492    7.2612742101
H       -2.1909858291   -1.2539182015    3.7821550186
H       -3.1084027564   -1.4328757723    5.2802641648
H       -1.3480462830   -4.9674870817    6.8388417263
H       -2.9336652042   -4.1983370381    6.6917822500
H       -3.7900933299   -3.4856982627    4.5028637399
H       -2.6671793248   -3.3986781761    3.1434639661
H       -0.6628057825   -0.9321539701    5.7549644176
H        2.0367001948   -3.8890654085    3.2595092910
H        3.1420690690   -2.5684225957    3.6177532854
H       -2.8481544332   -0.1967614116    1.2475848566
46   

C       -5.2831020587   -3.9250675337   -0.9311084393
C       -5.8538449960   -2.6762025509   -0.6162393263
C       -3.9348727475   -4.1835762042   -0.6327412562
C       -0.8127004191   -4.1058078968    0.3454948797
C       -5.0803070531   -1.6761205870   -0.0016386759
C        0.4440714024   -3.7848058517    0.8863832016
C       -0.3510678527   -1.5730209850    1.4936792252
C       -3.1915051412   -3.1728706240   -0.0226071468
C       -1.8150844931   -3.1402887331    0.4071523442
C       -3.7436319950   -1.9414626777    0.2897610596
C       -1.5928850026   -1.8941951556    0.9604394953
C        0.6775103173   -2.5263624599    1.4786260086
C       -0.0617450285   -2.7871077836    4.6355553191
C        1.1737570683   -2.3454640732    4.3797326362
C       -0.5236630762   -4.2301454427    4.4004114869
C       -1.3202696911   -2.7511545732    6.7262799517
C       -2.3711012504   -1.9348366157    4.6186463815
C       -1.9462763835   -4.1265316283    6.3926749323
C       -2.7854263878   -3.3761998890    4.2312419285
C       -1.0581752354   -1.9513784003    5.4310807535
C        2.1123585937   -2.8465635925    3.3271155816
N       -2.7675609875   -1.1352338157    0.8922204387
N       -1.9009359434   -4.3393022979    4.9292003611
O        1.8881531092   -2.2248450006    2.0502136226
F        1.6050428367   -1.2468186848    5.0475627753
H       -5.8872403657   -4.6900749406   -1.4052880353
H       -6.8953585172   -2.4843676213   -0.8488729960
H       -3.4840916049   -5.1398361521   -0.8679204739
H       -1.0018608575   -5.0744014329   -0.1012116535
H       -5.5120416573   -0.7141325967    0.2436802258
H        1.2465300398   -4.5107524785    0.8556760889
H       -0.1774540165   -0.6036401692    1.9412272372
H       -0.5168427723   -4.4596946275    3.3308267829
H        0.1437538418   -4.9327743448    4.9100495799
H       -1.9839362449   -2.2000114169    7.3995181521
H       -0.3683632384   -2.8988757515    7.2462498413
H       -2.2560293129   -1.3334004025    3.7135926916
H       -3.1592709807   -1.4748647433    5.2225386203
H       -1.4085789273   -4.9216322859    6.9197120697
H       -2.9884662185   -4.1502693172    6.7286239956
H       -3.8347667657   -3.5484966749    4.4918556178
H       -2.6900939762   -3.5092406555    3.1480264584
H       -0.7104966684   -0.9374178294    5.6522621574
H        2.0250897984   -3.9334749455    3.2401183992
H        3.1380881897   -2.6309210146    3.6406993978
H       -2.8804377606   -0.1791205997    1.2081650172
46   

C       -5.3863097695   -3.6721586502   -0.7837695360
C       -5.8381490653   -2.3402756448   -0.7031672524
C       -4.0700481231   -3.9974745148   -0.4158997018
C       -0.9615784223   -4.0379561154    0.6063077011
C       -4.9767833215   -1.3236015915   -0.2551100532
C        0.3161434022   -3.7449787006    1.1120838571
C       -0.2673307054   -1.3965765464    1.3056912591
C       -3.2376153673   -2.9682776499    0.0251295239
C       -1.8666839252   -2.9877716317    0.4728685924
C       -3.6724558004   -1.6555578650    0.1066203101
C       -1.5297118601   -1.6895244817    0.8045455389
C        0.6664228365   -2.4283537962    1.4806850916
C       -0.0489452900   -2.8886531986    4.5496678335
C        1.1376024892   -2.3018783937    4.3357611866
C       -0.2429841769   -4.4105191697    4.6244662034
C       -1.4038144029   -2.6448405862    6.5643264706
C       -2.4743095617   -2.4935828720    4.3224183503
C       -1.7610995908   -4.1506973771    6.5272396322
C       -2.6085319046   -4.0330627529    4.2458974972
C       -1.2183187186   -2.1021647673    5.1297612021
C        2.1538400114   -2.7060121916    3.3109571513
N       -2.6277392955   -0.8497889220    0.5816860135
N       -1.6064009930   -4.6544537177    5.1440032331
O        1.8979823901   -2.1365077674    2.0149796372
F        1.3808640931   -1.1171286100    4.9491779215
H       -6.0576192578   -4.4491703809   -1.1311854508
H       -6.8555999057   -2.0968119605   -0.9882000464
H       -3.7104125464   -5.0174877104   -0.4721241520
H       -1.2395099952   -5.0484524352    0.3323177210
H       -5.3170042597   -0.2979099411   -0.1898472980
H        1.0437075186   -4.5382900490    1.2238388375
H       -0.0061698188   -0.3842304421    1.5829032433
H       -0.1379013741   -4.8517601496    3.6285238654
H        0.5088306432   -4.8591487966    5.2822431425
H       -2.1886221345   -2.0947132942    7.0924581461
H       -0.4699774078   -2.5033739811    7.1177495149
H       -2.4299818621   -2.0830329591    3.3117242348
H       -3.3582072680   -2.0697434153    4.8087589903
H       -1.1186696446   -4.7056721670    7.2189202745
H       -2.7980839141   -4.2929810037    6.8497280959
H       -3.6237911556   -4.3351926655    4.5230794538
H       -2.4347470984   -4.3652571223    3.2165941108
H       -1.0609930967   -1.0187546464    5.1269533915
H        2.1951612646   -3.7966542013    3.2414704357
H        3.1390823097   -2.3686544087    3.6461760542
H       -2.6551155824    0.1511328101    0.7371069064
46   

C       -5.3472438204   -3.5519881067   -0.8221711455
C       -5.7927891848   -2.2166308390   -0.7687233033
C       -4.0356125248   -3.8774218361   -0.4379553551
C       -0.9374924042   -3.9158223246    0.6178187705
C       -4.9298385029   -1.1966573083   -0.3313683386
C        0.3366965940   -3.6208583824    1.1319833019
C       -0.2348124312   -1.2657973315    1.2740106070
C       -3.2012258941   -2.8447949850   -0.0084591243
C       -1.8343246835   -2.8631822632    0.4522453617
C       -3.6301715232   -1.5287640703    0.0468620162
C       -1.4938950529   -1.5609043531    0.7651867346
C        0.6925829060   -2.2982268523    1.4782501881
C        0.0430136233   -2.9649977179    4.4651010520
C        1.2445504150   -2.3685617973    4.3412238226
C       -0.1409639314   -4.4843335509    4.6421720108
C       -1.3041103971   -2.5409429918    6.4654674533
C       -2.3983245116   -2.6770458620    4.2355715898
C       -1.5190752951   -4.0671541982    6.6135694806
C       -2.5459811013   -4.2056266038    4.4087933590
C       -1.1463100584   -2.1624363813    4.9761916232
C        2.2463602015   -2.6425647212    3.2573948767
N       -2.5858139714   -0.7200741273    0.5178948039
N       -1.4574542922   -4.7048367199    5.2787778419
O        1.9219543997   -1.9942641374    2.0141995630
F        1.4812129187   -1.2549817223    5.0782650921
H       -6.0199738152   -4.3315263732   -1.1610971308
H       -6.8066609889   -1.9730348357   -1.0661805760
H       -3.6811393854   -4.9001594080   -0.4729084396
H       -1.2191484326   -4.9298514000    0.3613819239
H       -5.2654359333   -0.1683495421   -0.2864520120
H        1.0556549630   -4.4184302038    1.2646757875
H        0.0288964926   -0.2496334222    1.5340470232
H       -0.1064222005   -4.9807450763    3.6670963592
H        0.6614084567   -4.8930857725    5.2653264337
H       -2.1527410336   -2.0062862338    6.9031426992
H       -0.4060804611   -2.2440454158    7.0162316116
H       -2.3273736030   -2.4404844427    3.1728006300
H       -3.2901214366   -2.1746474707    4.6223299000
H       -0.7508806156   -4.4885216202    7.2706308970
H       -2.4930599702   -4.2623135861    7.0746482505
H       -3.5214775670   -4.4387475977    4.8482887390
H       -2.4978030974   -4.6939241888    3.4294808460
H       -1.0210995551   -1.0828095125    4.8414691523
H        2.3404577378   -3.7219570706    3.1092205697
H        3.2237317657   -2.2785581254    3.5877701772
H       -2.6109233284    0.2830016073    0.6588337241
46   

C       -5.2798005947   -3.5829669564   -0.8965145687
C       -5.7592309129   -2.2659092851   -0.7550617375
C       -3.9564123006   -3.8971305230   -0.5444148660
C       -0.8504011840   -3.9215520473    0.4907990518
C       -4.9188614339   -1.2531930648   -0.2605900492
C        0.4173204554   -3.6282694829    1.0225459800
C       -0.2125287178   -1.3017678903    1.3125374444
C       -3.1446863467   -2.8718754743   -0.0574357692
C       -1.7740633431   -2.8835304275    0.3928994781
C       -3.6074052852   -1.5740155092    0.0855261281
C       -1.4659651026   -1.5959417164    0.7890234114
C        0.7418586123   -2.3208346844    1.4510503037
C        0.1448060369   -3.2150920757    4.3356657125
C        1.3819845824   -2.6619353565    4.3040454024
C       -0.1195148636   -4.7207473233    4.5593526722
C       -1.1558152347   -2.5833113042    6.3366639344
C       -2.2926467776   -2.9280650449    4.1541688479
C       -1.2072050128   -4.1020603756    6.6392726649
C       -2.5400931403   -4.3791493241    4.6220826977
C       -1.0187221084   -2.3538115659    4.8129141732
C        2.3548340569   -2.7773256081    3.1627306519
N       -2.5808202394   -0.7698624845    0.6013482777
N       -1.3527924859   -4.8495389638    5.3678858945
O        1.9636506656   -2.0152314456    2.0053888972
F        1.6681548230   -1.6914912138    5.2066082267
H       -5.9356165792   -4.3571944283   -1.2781095190
H       -6.7819910413   -2.0310068332   -1.0281259963
H       -3.5763510901   -4.9061392665   -0.6459015629
H       -1.1081219008   -4.9244004033    0.1726645424
H       -5.2808648437   -0.2392185894   -0.1471802894
H        1.1538336370   -4.4164145569    1.1046407678
H        0.0258351004   -0.2976182504    1.6358195906
H       -0.2399110772   -5.2272378682    3.5960306110
H        0.7273453115   -5.1764279813    5.0831551125
H       -2.0765539199   -2.1052862675    6.6852985955
H       -0.3231770063   -2.1316260952    6.8840184385
H       -2.1610831647   -2.9195899309    3.0715397908
H       -3.1679735111   -2.3127075539    4.3828838881
H       -0.2798277166   -4.4092638532    7.1348698989
H       -2.0348637097   -4.3217851356    7.3217185417
H       -3.4164785543   -4.4130792903    5.2780743392
H       -2.7434403874   -5.0215670268    3.7588841794
H       -0.8859523785   -1.2962487167    4.5606100649
H        2.4858864540   -3.8306915157    2.9001663789
H        3.3287625865   -2.4088215836    3.4983370418
H       -2.6313918678    0.2209694708    0.8069287113
46   

C       -5.2832472321   -3.5744560340   -1.0074358732
C       -5.7759307815   -2.2585783568   -0.9060885361
C       -3.9690107524   -3.8719434722   -0.6092942648
C       -0.8918491008   -3.8501651695    0.5124435168
C       -4.9586689044   -1.2306981133   -0.4043616797
C        0.3576511233   -3.5367865815    1.0759289628
C       -0.3039081206   -1.2137254832    1.3146852262
C       -3.1797702675   -2.8315813923   -0.1172923639
C       -1.8229198441   -2.8235731056    0.3734440188
C       -3.6566873224   -1.5353299191   -0.0111850953
C       -1.5386494629   -1.5280231520    0.7596134550
C        0.6580612448   -2.2188752635    1.4971310938
C        0.1957865204   -3.3377357618    4.3235469507
C        1.4546742719   -2.8055595559    4.3260844920
C       -0.1172228022   -4.8279850318    4.6154089422
C       -1.1138283299   -2.5772348958    6.2838739801
C       -2.2332539864   -3.0004613003    4.1115673884
C       -1.1825154793   -4.0785384149    6.6604093352
C       -2.5283461422   -4.4142190569    4.6602699317
C       -0.9493857854   -2.4269175214    4.7514944309
C        2.3655314123   -2.7264701691    3.1266233705
N       -2.6533527659   -0.7143928679    0.5233923487
N       -1.3539434231   -4.8826924750    5.4273374937
O        1.8588388809   -1.8766545691    2.0801950497
F        1.8282847975   -2.0611919808    5.3945684040
H       -5.9218044463   -4.3606356824   -1.3938269855
H       -6.7911695689   -2.0363540150   -1.2154337586
H       -3.5791740954   -4.8798621492   -0.6796420243
H       -1.1308951324   -4.8601238449    0.2023003136
H       -5.3310442307   -0.2175432242   -0.3212208228
H        1.0933242996   -4.3216320561    1.1864490497
H       -0.0853565420   -0.2017291075    1.6272603316
H       -0.2522512252   -5.3738238328    3.6758400434
H        0.7152844095   -5.2850811022    5.1606306981
H       -2.0379975952   -2.0768361652    6.5893358320
H       -0.2924555964   -2.1028388010    6.8284162663
H       -2.0890769978   -3.0585653333    3.0324131989
H       -3.0926476912   -2.3480086982    4.2933033123
H       -0.2520664559   -4.3751708066    7.1569739399
H       -2.0026943301   -4.2534433004    7.3644499736
H       -3.4007090951   -4.3807448315    5.3217227926
H       -2.7598691816   -5.0962757979    3.8355679690
H       -0.7859194743   -1.3865602345    4.4505707007
H        2.5593092055   -3.7332457822    2.7474515329
H        3.3289043529   -2.3217648901    3.4508712299
H       -2.7179404138    0.2794593174    0.7094801199
46   

C       -5.2694770796   -3.5848591344   -1.1319714267
C       -5.7795725356   -2.2733160252   -1.0671071765
C       -3.9658142156   -3.8611753104   -0.6867233671
C       -0.9250970210   -3.7851272618    0.5265332428
C       -4.9910783136   -1.2289506825   -0.5534986355
C        0.3003787136   -3.4509106214    1.1293575624
C       -0.3994939526   -1.1355266131    1.3252039452
C       -3.2048210876   -2.8045199622   -0.1850340202
C       -1.8650832538   -2.7734065764    0.3493605558
C       -3.6999278220   -1.5128988324   -0.1122178383
C       -1.6101268031   -1.4711157724    0.7310566059
C        0.5701555464   -2.1243615547    1.5532102237
C        0.2685136122   -3.4621642773    4.3326845992
C        1.5561510103   -2.9689588247    4.3254367370
C       -0.1162075126   -4.9284862906    4.6861904247
C       -0.9864449021   -2.5452921034    6.2401024229
C       -2.1487609506   -3.0257434659    4.1004727627
C       -1.1292091677   -4.0212653327    6.6943143830
C       -2.5049664464   -4.3943424670    4.7219855176
C       -0.8343930583   -2.4801498915    4.7008660790
C        2.3735513067   -2.6746544537    3.0857929940
N       -2.7250861052   -0.6736122821    0.4461124374
N       -1.3484887047   -4.8792058024    5.5053838093
O        1.7367947583   -1.7467128353    2.1875165509
F        2.1319973925   -2.6974175563    5.5201263344
H       -5.8864227037   -4.3841160734   -1.5265540493
H       -6.7862489227   -2.0673209603   -1.4134072260
H       -3.5630110065   -4.8655965207   -0.7282914350
H       -1.1408896756   -4.8010760414    0.2188339484
H       -5.3772106551   -0.2190934314   -0.4976718358
H        1.0318353106   -4.2341253510    1.2698759938
H       -0.2066834457   -0.1174533631    1.6349809721
H       -0.2842475314   -5.5062324078    3.7714032006
H        0.6953741918   -5.4021475730    5.2486375231
H       -1.8778794046   -1.9814319838    6.5318460767
H       -0.1305145950   -2.0897053272    6.7468991803
H       -2.0183982787   -3.1448628623    3.0247513934
H       -2.9748267434   -2.3250525165    4.2552912879
H       -0.2124747396   -4.3393214794    7.2031677176
H       -1.9533619246   -4.1183140015    7.4087031273
H       -3.3696899785   -4.2866105763    5.3855450424
H       -2.7748380977   -5.1054146880    3.9343071603
H       -0.6230605255   -1.4653106940    4.3477170115
H        2.6124651841   -3.6096148819    2.5732898919
H        3.3283570507   -2.2412179221    3.3979334905
H       -2.8074054837    0.3217364755    0.6164401530
