28

C     -4.73911   -3.06421   -2.20562
C     -3.71341   -3.68924   -2.93411
C     -4.74507   -3.11564   -0.80727
C     -2.67564   -4.38375   -2.30068
C     -3.71394   -3.80684   -0.16921
C     -2.70331   -4.42889   -0.90965
C     -2.69043   -2.40199    3.10354
C     -1.93498   -1.18142    5.00430
C     -2.31459   -5.10118    1.21125
C     -2.85038   -2.22498    5.64757
C     -3.38215   -3.98284    1.28853
N     -2.25928   -1.22060    3.56733
N     -2.84020   -2.69537    1.82323
O     -1.76751   -5.05336   -0.12251
S     -3.05134   -3.54895    4.37233
H     -5.53446   -2.54604   -2.73192
H     -3.72837   -3.64214   -4.01924
H     -5.53870   -2.63748   -0.23840
H     -1.88823   -4.87626   -2.86195
H     -2.13424   -0.18360    5.39916
H     -0.87785   -1.42550    5.15303
H     -1.49510   -4.98641    1.92256
H     -2.79771   -6.07295    1.35816
H     -2.41049   -2.66756    6.54078
H     -3.83843   -1.82408    5.87820
H     -4.23061   -4.26234    1.91791
H     -1.91044   -0.50409    2.93769
H     -2.54862   -2.01828    1.12168
