19   
Generated by ForceBalance from scan.xyz: Frame 1 of 13
C       -3.8000277365   -1.0373585956   -1.6434358142
C       -4.0636728462   -1.6008812890   -0.4244483049
C       -1.7910367365   -0.7765212514   -0.7507947612
C        0.6608391957    0.2933415122    1.1548914320
C       -0.1805133821    1.0637322640    0.1192010828
C       -0.3628936742   -0.3297763488   -0.5895228422
C        0.4304431606   -0.4845275795   -1.8850910478
N       -2.5123576406   -0.5760061217   -1.8192056325
N        0.2852199153   -0.9264549447    0.6056666090
O        1.4416431718    0.5878076843    2.0328141676
S       -2.6424903137   -1.5624511112    0.5681856847
H       -4.5150142332   -0.9395806563   -2.4533087424
H       -4.9892739479   -2.0357620909   -0.0703225379
H       -1.0988983511    1.5025502063    0.5125338806
H        0.3793921060    1.8059587024   -0.4522180745
H        1.4492685277   -0.1091247166   -1.7486214536
H       -0.0557884058    0.0699090443   -2.6903861504
H        0.4786927734   -1.5366044502   -2.1833010572
H        0.7974489900   -1.8039720079    0.6601237166
19   
Generated by ForceBalance from scan.xyz: Frame 2 of 13
C       -3.8105798064   -1.0935985641   -1.6694496263
C       -4.1100044252   -1.6486271623   -0.4547426245
C       -1.8362984730   -0.8065509984   -0.7115618430
C        0.6707204808    0.2904847290    1.1701231040
C       -0.2567031118    1.0501868145    0.2033756436
C       -0.4193785723   -0.3471099807   -0.5068543033
C        0.4194760890   -0.4925614865   -1.7745824010
N       -2.5219732206   -0.6218163978   -1.8059218505
N        0.2011105702   -0.9419072147    0.7096942716
O        1.6359867642    0.5986694338    1.8338173261
S       -2.7242225321   -1.5881278323    0.5857743376
H       -4.4984071349   -1.0099685211   -2.5040288444
H       -5.0430312666   -2.0895403597   -0.1286234973
H       -1.1773781895    1.4273273041    0.6513710709
H        0.2355211514    1.8303276525   -0.3784989664
H        1.4291379044   -0.1054523076   -1.6059553874
H       -0.0462837678    0.0562568757   -2.5955971033
H        0.4886915146   -1.5441091696   -2.0702773433
H        0.7666902911   -1.7892465413    0.7130562177
19   
Generated by ForceBalance from scan.xyz: Frame 3 of 13
C       -3.8094915327   -1.0812767464   -1.6978223296
C       -4.1312434944   -1.6324326104   -0.4871394860
C       -1.8501473949   -0.7994429236   -0.7064562798
C        0.7284193267    0.2837522799    1.1237599756
C       -0.2702467251    1.0507319885    0.2372323034
C       -0.4349046096   -0.3485472148   -0.4774899646
C        0.4283146837   -0.4948734079   -1.7285747101
N       -2.5167148681   -0.6147685857   -1.8126229458
N        0.1620109941   -0.9487923896    0.7530052606
O        1.8305343437    0.5797067041    1.5317668146
S       -2.7627150576   -1.5759447543    0.5763871239
H       -4.4826659448   -0.9966392880   -2.5441819009
H       -5.0713878459   -2.0690772809   -0.1760356557
H       -1.1817291198    1.3797786234    0.7378188808
H        0.1677834685    1.8560528885   -0.3525967788
H        1.4368883736   -0.1139379624   -1.5413000017
H       -0.0195424960    0.0583800290   -2.5563969571
H        0.4959626658   -1.5462131509   -2.0251249612
H        0.7431587160   -1.7862962260    0.7153445749
19   
Generated by ForceBalance from scan.xyz: Frame 4 of 13
C       -3.7965043014   -1.0685629144   -1.7206160151
C       -4.1367550898   -1.6184510238   -0.5143603456
C       -1.8515398395   -0.7918823654   -0.7023896393
C        0.7804203916    0.2869440586    1.0694745541
C       -0.2807773738    1.0581930296    0.2622378217
C       -0.4370197353   -0.3476302939   -0.4573740312
C        0.4432569436   -0.4994234675   -1.6951149119
N       -2.5011650761   -0.6053382176   -1.8180624409
N        0.1343544578   -0.9444349345    0.7907548321
O        1.9525310580    0.5701482064    1.2038281440
S       -2.7834544885   -1.5645745979    0.5686519426
H       -4.4574800830   -0.9823799311   -2.5763544443
H       -5.0824302035   -2.0523572245   -0.2163840102
H       -1.1841764153    1.3368643372    0.8050864587
H        0.1057025078    1.8848772073   -0.3330469114
H        1.4516126972   -0.1242603112   -1.4979959503
H        0.0072919744    0.0542155278   -2.5288515585
H        0.5064625430   -1.5520063320   -1.9880382367
H        0.7201665733   -1.7785827780    0.7241143290
19   
Generated by ForceBalance from scan.xyz: Frame 5 of 13
C       -3.7778585593   -1.0636818969   -1.7346383483
C       -4.1327820554   -1.6079065265   -0.5301292170
C       -1.8444916781   -0.7863205935   -0.6942396732
C        0.8112109946    0.2974045703    1.0330267156
C       -0.3013483571    1.0678057944    0.2949509035
C       -0.4299797656   -0.3459083467   -0.4349121504
C        0.4601575816   -0.5032402413   -1.6630610206
N       -2.4804776950   -0.6030305826   -1.8182012599
N        0.1064810224   -0.9373242720    0.8373724259
O        1.9927415196    0.5490259054    0.8931891692
S       -2.7921298586   -1.5527231498    0.5685993477
H       -4.4283780786   -0.9797055393   -2.5985797777
H       -5.0827257012   -2.0389279294   -0.2416179266
H       -1.2027460670    1.2956617482    0.8625851752
H        0.0429406127    1.9125688387   -0.3002484839
H        1.4691235187   -0.1326109360   -1.4663486150
H        0.0272510756    0.0476745931   -2.5000076072
H        0.5168186480   -1.5576012992   -1.9506053194
H        0.7094085530   -1.7588381681    0.7459238404
19   
Generated by ForceBalance from scan.xyz: Frame 6 of 13
C       -3.7588863891   -1.0513031663   -1.7479602999
C       -4.1265773598   -1.5959662666   -0.5476487222
C       -1.8337343088   -0.7816232480   -0.6898231884
C        0.8340226667    0.2954426360    1.0272958293
C       -0.3208089736    1.0698461951    0.3391351457
C       -0.4166864319   -0.3490658559   -0.4179747874
C        0.4730925196   -0.5092519143   -1.6436165282
N       -2.4590625739   -0.5951664250   -1.8191113861
N        0.0764248801   -0.9333386802    0.8717774613
O        1.9641788206    0.5717109825    0.6601433809
S       -2.7959335829   -1.5461491998    0.5635977783
H       -4.4011515250   -0.9633985532   -2.6176802734
H       -5.0807856325   -2.0235379699   -0.2681743939
H       -1.2270407048    1.2511939624    0.9148835953
H       -0.0052696451    1.9321475304   -0.2464733161
H        1.4834744497   -0.1402598455   -1.4586843276
H        0.0327416204    0.0367926132   -2.4796934018
H        0.5238606603   -1.5655000650   -1.9255336222
H        0.6608532453   -1.7701434103    0.7785108352
19   
Generated by ForceBalance from scan.xyz: Frame 7 of 13
C       -3.7413833095   -0.6538214726   -1.0272832560
C       -3.6962648794   -1.9022534168   -0.4681053704
C       -1.5671957915   -0.7123684199   -0.6123674556
C        0.1321563571    0.3885025972    1.2163155782
C        0.0982412973    1.1930731877   -0.1122640803
C       -0.1190463885   -0.2912094157   -0.6568686642
C        0.5063602319   -0.6120394982   -2.0154406622
N       -2.5353332994    0.0065424851   -1.1091592836
N        0.7374237655   -0.7232960149    0.4953063911
O       -0.8769216491    0.4181968460    1.8994529645
S       -2.0697481927   -2.2819196682   -0.0123378041
H       -4.6403106465   -0.1685347093   -1.3915577753
H       -4.5083941654   -2.5942157026   -0.2879692279
H       -0.7335272553    1.8876874865   -0.2053218084
H        1.0424305561    1.5874232754   -0.4867225263
H        1.5482824923   -0.2832830534   -2.0298195549
H       -0.0490519773   -0.1071801234   -2.8104176548
H        0.4758272005   -1.6896737606   -2.2075051104
H        0.5301896278   -1.6421004890    0.9002889148
19   
Generated by ForceBalance from scan.xyz: Frame 8 of 13
C       -3.7357550835   -0.6858287117   -1.1093114591
C       -3.7123832087   -1.8888972539   -0.4570487250
C       -1.5710817923   -0.7260000776   -0.6420835118
C        0.1872801907    0.3604191103    1.2094925234
C        0.0735819031    1.1616353219   -0.1045887542
C       -0.1206956744   -0.3040145255   -0.6763098388
C        0.5083732159   -0.6057588128   -2.0356924301
N       -2.5234520481   -0.0402020424   -1.2121221945
N        0.7121206698   -0.7663507235    0.4842773423
O       -0.6533862562    0.4001599537    2.0859512961
S       -2.0997806438   -2.2404433147    0.0655877532
H       -4.6226548941   -0.2241326802   -1.5294859400
H       -4.5333003625   -2.5606098357   -0.2434174141
H       -0.7751059675    1.8397723612   -0.1607788001
H        0.9947785059    1.5984882025   -0.4905362203
H        1.5508429998   -0.2775871721   -2.0409292715
H       -0.0433451738   -0.0890670932   -2.8255249173
H        0.4782385225   -1.6806055401   -2.2428325648
H        0.5012958386   -1.6771144853    0.9003851139
19   
Generated by ForceBalance from scan.xyz: Frame 9 of 13
C       -3.7184444708   -0.9233822943   -1.4117396971
C       -3.8136056934   -1.7596333571   -0.3317432838
C       -1.6157592803   -0.7690375086   -0.7298147823
C        0.2770678642    0.2225729098    1.1919457391
C        0.0215999891    1.0888808241   -0.0560805592
C       -0.1698589800   -0.3269880464   -0.7404737354
C        0.4510834079   -0.5110704734   -2.1225043667
N       -2.4755792464   -0.3746020170   -1.6309112106
N        0.6631814125   -0.8736948336    0.3752491211
O       -0.3084931356    0.2498001884    2.2545126706
S       -2.2838781417   -1.8599447843    0.4703207117
H       -4.5350704437   -0.6777641865   -2.0820264379
H       -4.6783359352   -2.2964701360    0.0355402999
H       -0.8476789629    1.7414817446    0.0077154060
H        0.8914405779    1.6048241075   -0.4648298388
H        1.4882748259   -0.1667435087   -2.1057883109
H       -0.1145404304    0.0526377019   -2.8675617274
H        0.4360559135   -1.5671803343   -2.4106546420
H        0.5085320166   -1.8168214996    0.7356756663
19   
Generated by ForceBalance from scan.xyz: Frame 10 of 13
C       -3.7102475032   -1.0597017927   -1.5602718862
C       -3.8957807483   -1.6369966033   -0.3333910405
C       -1.6502216043   -0.7863038185   -0.7900001781
C        0.3325385734    0.1570075038    1.1984598074
C       -0.0319455582    1.0468435377   -0.0065562861
C       -0.2084941452   -0.3340686887   -0.7598765763
C        0.4432798675   -0.4544410677   -2.1327304847
N       -2.4408779249   -0.5871531347   -1.8096669049
N        0.5861445921   -0.9318446918    0.3497118911
O        0.0078492031    0.2286168044    2.3645660929
S       -2.4219611330   -1.5849432768    0.5734268972
H       -4.4744217270   -0.9603175101   -2.3235878854
H       -4.7944083701   -2.0779255437    0.0778108211
H       -0.9229452206    1.6578640579    0.1340566422
H        0.7890375205    1.6342247477   -0.4218233859
H        1.4776092899   -0.1054398402   -2.0752138609
H       -0.1058182017    0.1379562322   -2.8673845113
H        0.4410509158   -1.4956863784   -2.4698463280
H        0.4879791629   -1.8974134793    0.6627611031
19   
Generated by ForceBalance from scan.xyz: Frame 11 of 13
C       -3.7225756075   -1.0961032223   -1.6079689799
C       -3.9324359713   -1.6207642470   -0.3617461328
C       -1.6748272236   -0.8000044122   -0.8153225676
C        0.3942737063    0.1594816868    1.1920119920
C       -0.0732072722    1.0281123917    0.0066497811
C       -0.2366335767   -0.3434495840   -0.7574024039
C        0.4421721730   -0.4518641768   -2.1179241969
N       -2.4463811858   -0.6387726418   -1.8551131972
N        0.5289336685   -0.9517967497    0.3623310586
O        0.3415658885    0.2836349190    2.3963727051
S       -2.4718895333   -1.5422757036    0.5663001847
H       -4.4728107852   -1.0262113075   -2.3882211091
H       -4.8397706079   -2.0431248957    0.0498291267
H       -0.9849478736    1.5946728257    0.1961457681
H        0.6960793835    1.6689435903   -0.4290197592
H        1.4746422368   -0.1012108164   -2.0380114372
H       -0.0930945535    0.1462919236   -2.8582268652
H        0.4484622460   -1.4897245116   -2.4648744032
H        0.4917286413   -1.9227336409    0.6674884370
19   
Generated by ForceBalance from scan.xyz: Frame 12 of 13
C       -3.7407367663   -1.0911418440   -1.5512926204
C       -3.9577877671   -1.5744878506   -0.2897718853
C       -1.6938013941   -0.7845603391   -0.7619849868
C        0.5126762769    0.2138500885    1.2049526187
C       -0.0770491555    1.0436412601    0.0456577884
C       -0.2553356497   -0.3327376603   -0.6992663467
C        0.4334180191   -0.4580443503   -2.0539286897
N       -2.4603482147   -0.6498420880   -1.8087346061
N        0.4934403595   -0.9343439154    0.4305902665
O        0.7618053630    0.4052032064    2.3755516804
S       -2.4978061462   -1.4811849442    0.6390599002
H       -4.4880217346   -1.0411124079   -2.3359081050
H       -4.8691447204   -1.9790657126    0.1307318020
H       -0.9961771842    1.5745406095    0.2959689501
H        0.6309216237    1.7185748947   -0.4398917483
H        1.4654451617   -0.1057279294   -1.9732049768
H       -0.0976740936    0.1307871592   -2.8046623786
H        0.4417112863   -1.4999156086   -2.3883196419
H        0.5646759236   -1.9043374693    0.7283269324
19   
Generated by ForceBalance from scan.xyz: Frame 13 of 13
C       -3.7766998205   -1.0206972355   -1.6160465282
C       -4.0263939776   -1.5858683100   -0.3949638589
C       -1.7494038101   -0.7852766013   -0.7577571854
C        0.5884868565    0.2131588246    1.2232814049
C       -0.1244931862    1.0224926749    0.1199415231
C       -0.3118638661   -0.3532179797   -0.6219933917
C        0.4441445639   -0.4876054846   -1.9415171278
N       -2.4871300690   -0.5736270742   -1.8125175444
N        0.3593393828   -0.9678363321    0.5432631784
O        1.1159105185    0.4579006523    2.2865789659
S       -2.5885846878   -1.5659852727    0.5733855843
H       -4.5044575595   -0.9117626839   -2.4130061882
H       -4.9506613998   -2.0107865188   -0.0257041589
H       -1.0452282143    1.5110994893    0.4421036817
H        0.5172547427    1.7335653890   -0.4039428867
H        1.4725086745   -0.1355420633   -1.8177991965
H       -0.0506840492    0.0975457523   -2.7194469108
H        0.4654725402   -1.5316836703   -2.2691937128
H        0.7055390626   -1.9104275080    0.6999679136
