25   
Generated by ForceBalance from scan.xyz: Frame 1 of 24
C       -3.3072087948    1.3264307977   -1.5237739823
C       -3.1241518970    0.0143395537   -1.9792302337
C        1.8112418891   -2.6104822755    1.0240816664
C        3.2997520083   -0.7180621739    1.4619941815
C        0.7217482410   -1.8540310567    1.4527044528
C        2.2093963467    0.0338562153    1.8997113351
C       -2.5478700053    1.7825743125   -0.4492373580
C       -2.1794792562   -0.7821955635   -1.3339873765
C        3.0757668255   -2.0246587510    1.0333171756
C        0.9370012253   -0.5429504666    1.8825402612
C       -1.6241250025    0.8905105387    0.1065395070
N       -1.4288498416   -0.3512029901   -0.3068307896
O       -1.5755256567   -0.4448945717    2.7471593970
O        0.0428193042    1.4118382722    3.4110292423
O       -0.8349817313    1.3886279022    1.1338857510
F        4.1316852408   -2.7577589763    0.6124329836
S       -0.4429212495    0.4233951792    2.4621962913
H       -4.0378955868    1.9803002984   -1.9920498270
H       -3.7005004439   -0.3822507678   -2.8092035746
H        1.6939863626   -3.6350158908    0.6858341887
H        4.3061278620   -0.3121070229    1.4576276299
H       -0.2813374971   -2.2635714612    1.4513906016
H        2.3432900553    1.0485406930    2.2598569244
H       -2.6509808687    2.7816367496   -0.0398589822
H       -2.0074446708   -1.8091288060   -1.6509331304
25   
Generated by ForceBalance from scan.xyz: Frame 2 of 24
C       -4.4686586931    0.6631298177   -0.0423790713
C       -4.1381022792   -0.3109031611   -0.9916154245
C        2.1482944958   -1.9719882084    0.2579605634
C        3.2586538311   -0.1751479348    1.4945534528
C        0.9601260380   -1.7070149279    0.9369664214
C        2.0696887926    0.0859695133    2.1761911990
C       -3.5224440941    1.0193482787    0.9170975342
C       -2.8663509017   -0.8827531267   -0.9390678097
C        3.2705732096   -1.1985903977    0.5495374290
C        0.9389692293   -0.6813977116    1.8854521052
C       -2.2796282154    0.3832046094    0.8581552494
N       -1.9393149153   -0.5372172307   -0.0318543440
O       -1.4110917146   -1.5346146970    2.7944286881
O       -0.2661773487    0.4175090958    3.9656677206
O       -1.3185495953    0.7980204270    1.7736081861
F        4.4222919927   -1.4554393137   -0.1114241865
S       -0.5727105291   -0.3442360945    2.7656013054
H       -5.4499214787    1.1298307100   -0.0425464499
H       -4.8471712012   -0.6232049159   -1.7520164363
H        2.2144085842   -2.7600597638   -0.4852615162
H        4.1627314786    0.3928359853    1.6887294177
H        0.0595236705   -2.2740132241    0.7331450043
H        2.0192258230    0.8644856615    2.9301165820
H       -3.7178056325    1.7562082537    1.6885722204
H       -2.5709246755   -1.6466592483   -1.6558711403
25   
Generated by ForceBalance from scan.xyz: Frame 3 of 24
C       -4.5911487644    0.5947011620    0.0647533151
C       -4.4173888556   -0.4497639632   -0.8495259547
C        2.2940379221   -1.7951051022    0.1124049367
C        3.4427103655   -0.4184529147    1.7796518743
C        1.0651506965   -1.4602677257    0.6773203446
C        2.2107175376   -0.0813144226    2.3436274057
C       -3.5030700562    1.0042573624    0.8347467343
C       -3.1546083670   -1.0355427724   -0.9555727027
C        3.4556337251   -1.2685388922    0.6772120538
C        1.0446744147   -0.6089685359    1.7863836090
C       -2.2887950904    0.3451587886    0.6322042693
N       -2.0959348341   -0.6426346285   -0.2305656998
O       -1.3631990529   -1.3904526156    2.6299471677
O       -0.2966307547    0.6671019155    3.6759656603
O       -1.1843084238    0.7980053402    1.3498928443
F        4.6467726386   -1.5970341511    0.1270893285
S       -0.5224142238   -0.2045075902    2.5329121770
H       -5.5580773357    1.0760692055    0.1828916570
H       -5.2382381848   -0.8055601780   -1.4645296273
H        2.3629310153   -2.4490171116   -0.7510564181
H        4.3760137231   -0.0356970104    2.1798757897
H        0.1343578868   -1.8287999873    0.2576200221
H        2.1511994394    0.5767556163    3.2040808019
H       -3.5707611980    1.7997436243    1.5689333548
H       -2.9789681918   -1.8527523904   -1.6524543609
25   
Generated by ForceBalance from scan.xyz: Frame 4 of 24
C       -4.6353478341    0.5706312233    0.1836647740
C       -4.5944314716   -0.4749052948   -0.7444883737
C        2.4742992096   -1.7397518439    0.1598892483
C        3.4963560490   -0.4596202130    1.9801923728
C        1.2070695437   -1.3906506231    0.6209142622
C        2.2254238850   -0.1068825302    2.4397464069
C       -3.4522158661    0.9600785179    0.8116621021
C       -3.3659861617   -1.0857668926   -1.0066476285
C        3.5910173474   -1.2688386974    0.8515627041
C        1.1053694820   -0.5807518022    1.7568046626
C       -2.2883654727    0.2736156246    0.4625277284
N       -2.2199685993   -0.7186590962   -0.4132445377
O       -1.3335268443   -1.3794311658    2.4884063752
O       -0.4155280211    0.7759781941    3.4604577026
O       -1.0801168222    0.6794636384    1.0299690198
F        4.8195491513   -1.6109276032    0.4015899382
S       -0.5181545659   -0.1770579727    2.3641759413
H       -5.5709412740    1.0709202974    0.4181459920
H       -5.4916862125   -0.8128355468   -1.2539312997
H        2.6075443801   -2.3614035512   -0.7196808205
H        4.3976716994   -0.1173931072    2.4783826621
H        0.3110446948   -1.7221443470    0.1034500712
H        2.1017989831    0.5263893432    3.3121206052
H       -3.4125921930    1.7591887426    1.5442151426
H       -3.2935132019   -1.9031548962   -1.7213888093
25   
Generated by ForceBalance from scan.xyz: Frame 5 of 24
C       -4.3929086566    2.7249403025    2.7835001671
C       -5.1027902992    2.1176126598    1.7424176524
C        1.3933444621   -1.6868558507    0.0316625702
C        3.1056607381   -0.7426762335    1.5055893068
C        0.3973749904   -1.1481232264    0.8428211975
C        2.1057945499   -0.2005842032    2.3156434623
C       -3.0210039488    2.4961412390    2.8860667402
C       -4.4054920041    1.3033964955    0.8470177087
C        2.7267391868   -1.4726628661    0.3822937740
C        0.7702731898   -0.4140642858    1.9731683154
C       -2.4407289563    1.6597125050    1.9299955316
N       -3.0868940473    1.0691318538    0.9373735437
O       -1.5880594414   -0.7189994628    3.1833842291
O        0.0880201060    0.9145283217    4.1652600397
O       -1.0598402730    1.4412147343    1.9701303579
F        3.6922243961   -1.9972971144   -0.4050462736
S       -0.5099071836    0.2482323322    3.0146646412
H       -4.8970301417    3.3650702251    3.5023278749
H       -6.1715848503    2.2685035496    1.6246880785
H        1.1545116152   -2.2619715580   -0.8571007478
H        4.1580874106   -0.6066430517    1.7326256395
H       -0.6521355517   -1.2881816619    0.6033023626
H        2.3530673783    0.3753046688    3.2013198474
H       -2.4107293459    2.9360364057    3.6678998174
H       -4.9217116396    0.8141834506    0.0232855713
25   
Generated by ForceBalance from scan.xyz: Frame 6 of 24
C       -4.2508772905    2.8282689858    2.9650869318
C       -5.0873783842    2.4300039302    1.9169061586
C        1.5908100876   -1.8603559283    0.1561628262
C        3.1342705656   -0.4756265472    1.4581383122
C        0.5217810265   -1.3709668950    0.9041072020
C        2.0618840457    0.0145697880    2.2048891081
C       -2.9091643531    2.4496621996    2.9395273811
C       -4.5414677650    1.6620448420    0.8863360889
C        2.8743812949   -1.4004146161    0.4496471739
C        0.7741847868   -0.4406406290    1.9165738619
C       -2.4882178559    1.6716632319    1.8570217111
N       -3.2558754931    1.2761041124    0.8558046451
O       -1.6220733144   -0.8529096130    3.0148759892
O       -0.0954867564    0.8984975712    4.0358508151
O       -1.1417111781    1.2946984449    1.7582113527
F        3.9114049797   -1.8758944595   -0.2749758212
S       -0.5937832198    0.1709660818    2.8726400116
H       -4.6338416006    3.4281332854    3.7861439577
H       -6.1372262925    2.7063038369    1.8954900055
H        1.4450438961   -2.5839742809   -0.6393118097
H        4.1534516508   -0.1547272272    1.6476487987
H       -0.4921172795   -1.7063638708    0.7111202607
H        2.2178947917    0.7311690680    3.0044426085
H       -2.2078720735    2.7307606939    3.7180924146
H       -5.1569591535    1.3352034517    0.0504215933
25   
Generated by ForceBalance from scan.xyz: Frame 7 of 24
C       -4.1792358636    2.9210498062    2.9963326270
C       -5.1211544397    2.5897880310    2.0167957787
C        1.7182418307   -2.0118379035    0.3365005216
C        3.0261043896   -0.3809215228    1.6103100166
C        0.5642516347   -1.6089528364    1.0065641032
C        1.8698293449    0.0216718619    2.2792655334
C       -2.8944560001    2.3857912395    2.9080238709
C       -4.7327158994    1.7284890046    0.9886045555
C        2.9242219206   -1.3875354745    0.6524815065
C        0.6580614662   -0.5977142164    1.9666422506
C       -2.6350625366    1.5252709288    1.8363870731
N       -3.5056610868    1.1918146249    0.8987125441
O       -1.7700337860   -1.1932850226    2.8909781219
O       -0.4634579633    0.6603935652    4.0227022166
O       -1.3496421097    0.9893814191    1.6635551872
F        4.0434932476   -1.7793487829    0.0046684154
S       -0.8155349316   -0.0940366050    2.8223899828
H       -4.4362927990    3.5905736378    3.8126668011
H       -6.1309503486    2.9879242479    2.0453127674
H        1.6959287809   -2.7938999768   -0.4154989481
H        3.9912844701    0.0678641192    1.8216108531
H       -0.3935273445   -2.0737094794    0.7962710737
H        1.9048870937    0.7950819812    3.0394150909
H       -2.1200153562    2.6075293514    3.6334973592
H       -5.4325185828    1.4490242279    0.2033781254
25   
Generated by ForceBalance from scan.xyz: Frame 8 of 24
C       -1.7740595635    4.5533760361    1.7870096466
C       -0.8883478241    5.5583856660    1.3847295240
C        1.1049893001   -2.8565321547    0.7649990679
C        3.2883366602   -1.7542706615    0.8798150461
C        0.5160502830   -1.7453777203    1.3691222951
C        2.6982281567   -0.6455680153    1.4844813729
C       -1.3655305062    3.2219688949    1.7131447873
C        0.3768687361    5.1842242576    0.9275557228
C        2.4784375113   -2.8346408537    0.5323179989
C        1.3204660098   -0.6586608492    1.7182322420
C       -0.0683524966    2.9795712207    1.2497240410
N        0.7907380784    3.9087742768    0.8665777469
O       -0.7555477126    0.4036659313    2.9929324055
O        1.5379606567    1.4279568925    3.3570152198
O        0.3916857662    1.6611648736    1.1048551749
F        3.0519611209   -3.9098742929   -0.0516570363
S        0.5735707222    0.7537544958    2.4973805874
H       -2.7699368155    4.7989398556    2.1457174514
H       -1.1684858039    6.6067724531    1.4217170119
H        0.5218194712   -3.7261559450    0.4797873866
H        4.3541280577   -1.7923144291    0.6792039977
H       -0.5483249152   -1.7224903124    1.5782985230
H        3.2938211882    0.2127816960    1.7779227197
H       -2.0070871112    2.3990151293    2.0066909269
H        1.0946946166    5.9338997354    0.6002217534
25   
Generated by ForceBalance from scan.xyz: Frame 9 of 24
C       -1.6752816067    4.6706619903    1.8579087599
C       -0.7028754132    5.5642195249    1.3964753960
C        1.2159035134   -2.9359907854    0.8228986571
C        3.2569870929   -1.5838117588    0.8367170349
C        0.5137641907   -1.8779741516    1.4019825252
C        2.5542932774   -0.5293096276    1.4165816561
C       -1.4362135512    3.3007126444    1.7558729989
C        0.4741909535    5.0436892506    0.8547991506
C        2.5712441714   -2.7642997893    0.5516151737
C        1.1930860256   -0.6928123399    1.6894746577
C       -0.2130862691    2.9074544341    1.2045161323
N        0.7259255060    3.7279611476    0.7651129573
O       -0.9971819379    0.1870258312    2.9037121737
O        1.1803311242    1.4230887869    3.3141399975
O        0.0667572661    1.5433277286    1.0400144609
F        3.2532087903   -3.7873266207   -0.0094769833
S        0.3057056799    0.6530972251    2.4379735581
H       -2.6068238685    5.0324571566    2.2845158847
H       -0.8502130011    6.6384941959    1.4530795176
H        0.7320696373   -3.8777754480    0.5850231549
H        4.3146455903   -1.5047437825    0.6070281232
H       -0.5414540069   -1.9692348740    1.6371824396
H        3.0515212636    0.4043267040    1.6590702852
H       -2.1515117014    2.5566890363    2.0898108644
H        1.2538413608    5.7043647983    0.4805528464
25   
Generated by ForceBalance from scan.xyz: Frame 10 of 24
C       -1.5377397306    4.7573305411    1.7744414918
C       -0.4286545318    5.5182655878    1.3901396815
C        1.4442038594   -2.9806024332    0.8231591021
C        3.2269574359   -1.3249123720    0.5463210277
C        0.6366149490   -2.0078952650    1.4158466768
C        2.4208178884   -0.3570017170    1.1409074059
C       -1.4758629476    3.3693474623    1.6545679679
C        0.6988020097    4.8531049105    0.9032097866
C        2.7201522879   -2.6167293264    0.4013972807
C        1.1378160121   -0.7145640494    1.5669191378
C       -0.2895190233    2.8242130822    1.1579986906
N        0.7759232391    3.5175956103    0.7911461797
O       -1.1280790389   -0.0779940169    2.7867890815
O        0.9239877945    1.3447826720    3.2492104876
O       -0.1993001181    1.4389951278    0.9808734541
F        3.5040091708   -3.5554351261   -0.1744423037
S        0.1260604656    0.5222458555    2.3473879385
H       -2.4349651762    5.2347115799    2.1587904623
H       -0.4337296991    6.6014430110    1.4653431628
H        1.0997474156   -4.0006469553    0.6870715685
H        4.2287923477   -1.0956691384    0.1978178616
H       -0.3644578103   -2.2450393704    1.7605031601
H        2.7765900574    0.6602955828    1.2705405941
H       -2.3001980768    2.7206932761    1.9320642432
H        1.5809451647    5.4094233988    0.5923016353
25   
Generated by ForceBalance from scan.xyz: Frame 11 of 24
C       -1.3901422851    4.8571945279    1.7523767582
C       -0.1497293039    5.4275344816    1.4485762161
C        1.5761395813   -2.9642682474    1.0759534639
C        3.0612816318   -1.0964087374    0.5280820375
C        0.6921653840   -2.0772192829    1.6947202041
C        2.1808336953   -0.2133257429    1.1486624472
C       -1.5250063614    3.4698270089    1.6986063371
C        0.9057107247    4.5810180676    1.1012534375
C        2.7401271162   -2.4542153919    0.5081082040
C        1.0109276174   -0.7198008908    1.7243272762
C       -0.3966287503    2.7327505793    1.3360276608
N        0.7896961606    3.2454717357    1.0434577310
O       -1.2834880154   -0.2896079886    2.9815465538
O        0.6695237787    1.2692714848    3.4609220660
O       -0.5120939440    1.3468105047    1.2177134945
F        3.5966040542   -3.3105914265   -0.0934849274
S       -0.0839581327    0.4151513529    2.5507881942
H       -2.2364207176    5.4798229161    2.0293925461
H        0.0004571401    6.5023626560    1.4805287594
H        1.3733550655   -4.0293155162    1.0289802208
H        3.9793438821   -0.7519168969    0.0629525417
H       -0.2295381651   -2.4289582817    2.1464520602
H        2.3849719994    0.8533056861    1.1746638396
H       -2.4566444784    2.9620563246    1.9247326811
H        1.8861201753    4.9864486243    0.8589734364
25   
Generated by ForceBalance from scan.xyz: Frame 12 of 24
C       -1.3422680070    4.8672690102    1.6693407429
C       -0.0524868917    5.3083578098    1.3555249545
C        1.6469244083   -2.8618634278    0.9711072174
C        3.0252806833   -0.8918661420    0.5166274828
C        0.7308740995   -2.0600236234    1.6554359716
C        2.1131659220   -0.0924019931    1.2023057177
C       -1.5917312684    3.4959741049    1.7189816043
C        0.9331776146    4.3530357676    1.0994262316
C        2.7739346366   -2.2604572334    0.4179936208
C        0.9806544701   -0.6912763031    1.7630780242
C       -0.5254023434    2.6401487742    1.4372275549
N        0.7041311132    3.0313778236    1.1329548705
O       -1.2803047670   -0.4961178840    3.1201672524
O        0.5557982438    1.2099919236    3.5794319748
O       -0.7798537753    1.2700582599    1.4192601225
F        3.6621813085   -3.0344437587   -0.2466771868
S       -0.1659759057    0.3261034265    2.6731371922
H       -2.1378223528    5.5769596093    1.8792035991
H        0.1879475834    6.3661418438    1.3115856895
H        1.4972007242   -3.9313307639    0.8639211514
H        3.9166385984   -0.4734160955    0.0602519503
H       -0.1619795715   -2.4858346279    2.1010024711
H        2.2585220701    0.9805739347    1.2850968405
H       -2.5653509706    3.0856358443    1.9643009070
H        1.9493083754    4.6558047321    0.8542433401
25   
Generated by ForceBalance from scan.xyz: Frame 13 of 24
C       -1.3238506842    4.8150943224    1.5016247445
C       -0.0245475738    5.1292905626    1.0873962657
C        1.4904642851   -2.6458937473    0.6926174599
C        3.0890741719   -0.7924907126    0.7521763630
C        0.6149073359   -1.9121338552    1.4939557050
C        2.2115962889   -0.0607565312    1.5505181169
C       -1.6422894898    3.4854370954    1.7736103558
C        0.8990742313    4.0910073201    0.9587202105
C        2.7077773779   -2.0682611471    0.3396763456
C        0.9873857709   -0.6313869025    1.9090080119
C       -0.6334405221    2.5351129289    1.5968431340
N        0.6018840624    2.8046214203    1.2007350092
O       -1.1415453288   -0.6068969402    3.4706119478
O        0.6187330581    1.2161687051    3.7833597723
O       -0.9791885546    1.2028583478    1.7995246509
F        3.5593097707   -2.7775342997   -0.4356857965
S       -0.1319894229    0.2956604664    2.9407803928
H       -2.0733795376    5.5927255490    1.6206570939
H        0.2687488843    6.1520582930    0.8718005651
H        1.2454744533   -3.6456478875    0.3488091733
H        4.0512771872   -0.3919750990    0.4494637770
H       -0.3385814784   -2.3273059254    1.8028487133
H        2.4592569565    0.9407875026    1.8823447885
H       -2.6254263716    3.1749628640    2.1102726044
H        1.9208022771    4.2932099635    0.6428780446
25   
Generated by ForceBalance from scan.xyz: Frame 14 of 24
C       -1.2939811984    4.6994097530    1.3476619082
C        0.0124121958    4.9111141399    0.8895243804
C        1.3995732723   -2.4123971636    0.4752383800
C        3.1159894529   -0.7103958544    0.8662976588
C        0.5529247757   -1.7581802900    1.3702120293
C        2.2644265424   -0.0547061383    1.7539252624
C       -1.6566417279    3.4326661838    1.7998059614
C        0.8989198651    3.8347758320    0.9022804883
C        2.6626338913   -1.8718924156    0.2436594756
C        0.9953150861   -0.5873104008    1.9910468461
C       -0.6798706972    2.4328620734    1.7510741996
N        0.5595871935    2.6042055960    1.3191688436
O       -1.0305083993   -0.7448774458    3.6733214104
O        0.6728940118    1.1286158148    3.9943185594
O       -1.0800512095    1.1612440008    2.1410282711
F        3.4877733748   -2.5055521651   -0.6206291310
S       -0.0918377635    0.2298236931    3.1421637062
H       -2.0158889492    5.5113958543    1.3623947303
H        0.3373509196    5.8844554950    0.5353519929
H        1.0995571130   -3.3248540802   -0.0298236749
H        4.1125842424   -0.3371616277    0.6532728960
H       -0.4321654466   -2.1543070154    1.5934671647
H        2.5686915009    0.8577098569    2.2526345421
H       -2.6467661115    3.2060009736    2.1801128557
H        1.9249807593    3.9552967299    0.5597888099
25   
Generated by ForceBalance from scan.xyz: Frame 15 of 24
C       -0.9310473544    4.1930861931   -0.5325696278
C        0.4302449151    4.4554797199   -0.3230667602
C        1.8892502308   -2.3179306870    0.7105714936
C        3.2717119456   -0.5944537241    1.7655968591
C        0.7424743684   -1.6947645280    1.2030167305
C        2.1232732186    0.0324565845    2.2457974906
C       -1.4967154319    3.0512494942    0.0259878190
C        1.1634612154    3.5506972086    0.4406982511
C        3.1285192424   -1.7526175761    1.0035135883
C        0.8765880824   -0.5258296803    1.9563264848
C       -0.6514351383    2.2156411327    0.7680081112
N        0.6343846902    2.4382010777    0.9787074321
O       -1.6068950999   -0.7813962469    2.8068181452
O       -0.2521954869    1.2140933047    3.6262455970
O       -1.2368490958    1.0649843708    1.2698622104
F        4.2424474850   -2.3568946192    0.5312050285
S       -0.5960094304    0.2426877743    2.6000034596
H       -1.5438648750    4.8739160872   -1.1171082313
H        0.9073598837    5.3380544346   -0.7373013192
H        1.8345874797   -3.2269072434    0.1202984477
H        4.2624980598   -0.2011032570    1.9693654061
H       -0.2407481342   -2.1137252938    1.0157941566
H        2.1826084386    0.9428800537    2.8302964534
H       -2.5448354609    2.7978605809   -0.0911275550
H        2.2221116022    3.7133752039    0.6337782322
25   
Generated by ForceBalance from scan.xyz: Frame 16 of 24
C       -0.7834321126    3.9275199698   -0.6886413933
C        0.5446594120    4.2481575589   -0.3702246860
C        1.7629505296   -2.0730613223    0.5499677558
C        3.2048967505   -0.5114622072    1.7642312279
C        0.6425089013   -1.5061518537    1.1575686708
C        2.0827322754    0.0624041397    2.3589899961
C       -1.4150394755    2.8909754019   -0.0104728097
C        1.1783348886    3.5062571041    0.6222536197
C        3.0198872584   -1.5624222816    0.8675215341
C        0.8189912776   -0.4420272844    2.0454189679
C       -0.6700668943    2.2193768630    0.9700660670
N        0.5807439598    2.5025175996    1.2892825247
O       -1.6202620368   -0.7879736048    2.9924033131
O       -0.2326557796    1.1218108050    3.9317185184
O       -1.3323131399    1.1907365273    1.6146046849
F        4.1079733592   -2.1129992683    0.2833493857
S       -0.6194138178    0.2543879836    2.8317743389
H       -1.3183651877    4.4801653242   -1.4562438003
H        1.0708498058    5.0510043871   -0.8767701933
H        1.6753672963   -2.8996400244   -0.1476894112
H        4.2075684182   -0.1571238064    1.9809061479
H       -0.3523817054   -1.8886459371    0.9540811009
H        2.1734414101    0.8925974541    3.0495252821
H       -2.4395527969    2.5966166104   -0.2111863808
H        2.2080588942    3.7160589568    0.9052663536
25   
Generated by ForceBalance from scan.xyz: Frame 17 of 24
C       -0.6283134637    3.6302052538   -0.8114240095
C        0.6617230483    4.0276964410   -0.4314639219
C        1.6770204929   -1.8284661242    0.3679760701
C        3.1550218871   -0.4205072857    1.7209937575
C        0.5741753545   -1.3318385845    1.0628137609
C        2.0496059063    0.0830716872    2.4042693542
C       -1.3075403430    2.6961960429   -0.0359992287
C        1.2094147132    3.4666400775    0.7193705164
C        2.9432373775   -1.3602978029    0.7135944119
C        0.7762978699   -0.3783983275    2.0637409913
C       -0.6514103040    2.2117963602    1.1046275970
N        0.5615640241    2.5736494925    1.4878776733
O       -1.6473002086   -0.8173468548    3.0224055218
O       -0.2287505645    0.9665536229    4.1359399032
O       -1.3700915992    1.3094210857    1.8656797294
F        4.0144363872   -1.8423386580    0.0444490106
S       -0.6416019290    0.2313512631    2.9528251969
H       -1.0947560012    4.0389876388   -1.7036787844
H        1.2254130516    4.7512796773   -1.0118178994
H        1.5694719988   -2.5694210667   -0.4175573673
H        4.1642179156   -0.0955338584    1.9529346613
H       -0.4272502548   -1.6857483150    0.8403386694
H        2.1602549490    0.8282511025    3.1834469419
H       -2.3037156486    2.3432151874   -0.2802171818
H        2.2084707685    3.7407729356    1.0526903297
25   
Generated by ForceBalance from scan.xyz: Frame 18 of 24
C       -0.5370058350    3.3789509929   -0.8451538996
C        0.7447495702    3.8194325142   -0.4897218539
C        1.5948537990   -1.5796649162    0.3006855206
C        3.0934819781   -0.3254549042    1.7758132826
C        0.5002147300   -1.1432265029    1.0469415095
C        1.9970642977    0.1190325505    2.5123010398
C       -1.2436990168    2.5659770028    0.0370924449
C        1.2577014530    3.4260907098    0.7452632264
C        2.8677330167   -1.1595538254    0.6820583203
C        0.7175448346   -0.2953935812    2.1359063458
C       -0.6256506291    2.2482121570    1.2534295817
N        0.5806473321    2.6583674387    1.6156049776
O       -1.7240848920   -0.7702205367    3.0370179085
O       -0.2605899539    0.8392906344    4.3398882434
O       -1.3697597946    1.4827421851    2.1316287276
F        3.9303807483   -1.5827767839   -0.0383417259
S       -0.6888912230    0.2519195581    3.0815748448
H       -0.9749193398    3.6574710088   -1.7998642132
H        1.3309362425    4.4491493977   -1.1516499160
H        1.4759340267   -2.2389857496   -0.5529843081
H        4.1068609127   -0.0335898223    2.0320555765
H       -0.5060220507   -1.4632891729    0.7964811887
H        2.1200126627    0.7836879855    3.3596925961
H       -2.2345655341    2.1833028352   -0.1826441239
H        2.2505155798    3.7402079015    1.0618216810
25   
Generated by ForceBalance from scan.xyz: Frame 19 of 24
C       -0.5348603716    3.2282986297   -0.8628966859
C        0.7669350778    3.6629512399   -0.5855574914
C        1.5923347153   -1.3961405222    0.2136270721
C        3.0746027684   -0.3050448966    1.8292190319
C        0.4867084555   -1.0080218059    0.9701421415
C        1.9672059353    0.0912990454    2.5763680917
C       -1.2284449236    2.5106219559    0.1095378186
C        1.3122932627    3.3631833546    0.6632288585
C        2.8618139709   -1.0345556138    0.6606593126
C        0.6906188166   -0.2657165572    2.1360064502
C       -0.5778949820    2.2808072324    1.3275068474
N        0.6494375428    2.6900173299    1.6169609989
O       -1.8011148172   -0.7324674302    2.8887100799
O       -0.3189741476    0.6406385464    4.4248275284
O       -1.3019473390    1.6204069361    2.3033547923
F        3.9347991858   -1.4119712491   -0.0696392169
S       -0.7276906500    0.2305473215    3.0916462420
H       -0.9981233384    3.4368644783   -1.8234871719
H        1.3456004727    4.2190685828   -1.3165660653
H        1.4841742122   -1.9747405955   -0.6980443023
H        4.0858044783   -0.0549974767    2.1336975768
H       -0.5180880378   -1.2855754123    0.6686563306
H        2.0813897533    0.6752121987    3.4825514562
H       -2.2349869707    2.1364039097   -0.0437219902
H        2.3219379751    3.6787983659    0.9193706299
25   
Generated by ForceBalance from scan.xyz: Frame 20 of 24
C       -1.9523783005    1.2956011309   -1.5836669337
C       -2.0035291314   -0.0434095958   -1.9882457482
C        1.3951853524   -2.4904486650    0.9921763097
C        2.3585783440   -0.2971141738    0.4840357677
C        0.4674593987   -1.8862192690    1.8383931990
C        1.4361851874    0.3030926198    1.3406885195
C       -1.8948388797    1.5881649329   -0.2220395312
C       -2.0034250264   -1.0326973665   -1.0035368403
C        2.3155154173   -1.6813495576    0.3281861984
C        0.5016432910   -0.4993078953    2.0000614292
C       -1.9084074595    0.5094876309    0.6690782540
N       -1.9663736563   -0.7661548910    0.3112959110
O       -1.2998010447   -0.7176068224    3.9387960385
O       -0.1212031710    1.5117860383    3.5977714187
O       -1.9083187536    0.8122684384    2.0196018138
F        3.2087712522   -2.2652004585   -0.5015180877
S       -0.6893489347    0.2775479759    3.0729931337
H       -1.9483469296    2.0980768896   -2.3163580788
H       -2.0423070897   -0.3163272519   -3.0382911137
H        1.4096480456   -3.5645584710    0.8378541940
H        3.1040175165    0.2844959694   -0.0485732256
H       -0.2802019785   -2.4723680628    2.3606523104
H        1.4464618047    1.3757260378    1.5044346162
H       -1.8440829683    2.6025552729    0.1590172334
H       -2.0398298534   -2.0862778512   -1.2742155749
25   
Generated by ForceBalance from scan.xyz: Frame 21 of 24
C       -2.0675424983    1.2611414528   -1.6459452245
C       -2.1736193777   -0.0963874791   -1.9741307455
C        1.4456841420   -2.4784319020    0.9310869050
C        2.5007156249   -0.2913641947    0.6117807412
C        0.4802787433   -1.8932950640    1.7483918279
C        1.5397327065    0.2879054727    1.4402884311
C       -1.8994575418    1.6244819165   -0.3118184627
C       -2.1133545736   -1.0309248511   -0.9407710294
C        2.4301935819   -1.6630046050    0.3756652712
C        0.5408323827   -0.5191898372    1.9905227333
C       -1.8643679155    0.5938067946    0.6353678111
N       -1.9717081732   -0.6960218566    0.3520330413
O       -1.4218128194   -0.7903463181    3.7611863987
O       -0.0785890764    1.3735709697    3.7208362397
O       -1.7523110715    0.9815245482    1.9581212468
F        3.3610433310   -2.2283134560   -0.4252555856
S       -0.6829329863    0.2353135288    3.0443397920
H       -2.1054409168    2.0240661838   -2.4187987607
H       -2.2984954393   -0.4225144276   -3.0019719393
H        1.4415465335   -3.5424822861    0.7175130205
H        3.2954540750    0.2955558375    0.1627997906
H       -0.3167208272   -2.4825392575    2.1872343557
H        1.5700229144    1.3487947227    1.6665917054
H       -1.8003061501    2.6563072204    0.0077681808
H       -2.1871520211   -2.0965542728   -1.1493480807
25   
Generated by ForceBalance from scan.xyz: Frame 22 of 24
C       -3.4667771978   -0.6112746681   -0.1974907244
C       -2.7523798498   -0.1662710594   -1.3147814847
C        0.9741286647   -2.3101168382    0.6307930284
C        2.3110101948   -0.2608059481    0.5614060331
C        0.1792743565   -1.7540794593    1.6331094807
C        1.5118964299    0.2941943550    1.5585502353
C       -3.0965296831   -0.1510498704    1.0662897129
C       -1.6965471612    0.7269602376   -1.1166368827
C        2.0214600242   -1.5494249325    0.1158098679
C        0.4578237788   -0.4604772574    2.0802997016
C       -2.0170156359    0.7342321509    1.1351325608
N       -1.3251163962    1.1731062812    0.0931285637
O       -1.4053183247   -0.7629418923    3.9323702528
O        0.1625588563    1.2489948880    4.0857561750
O       -1.6308771263    1.2270150874    2.3804867639
F        2.7915032283   -2.0853146644   -0.8577431157
S       -0.5945139603    0.2797285715    3.3130012562
H       -4.2974365690   -1.3031979219   -0.3073658299
H       -3.0058914845   -0.4985374506   -2.3169175247
H        0.7969714236   -3.3121774176    0.2537022866
H        3.1406879321    0.2872868912    0.1268753558
H       -0.6441593514   -2.3123975541    2.0653964580
H        1.6950355989    1.2989578435    1.9238197026
H       -3.6037636762   -0.4575700119    1.9747975456
H       -1.1189189638    1.1003037711   -1.9601023479
25   
Generated by ForceBalance from scan.xyz: Frame 23 of 24
C       -3.6956891560   -0.4869331811   -0.1057876471
C       -2.9955575044   -0.2038362181   -1.2834223022
C        1.1585553160   -2.2864285844    0.5713839935
C        2.5129136098   -0.2514314717    0.7051956268
C        0.2855352889   -1.7647507421    1.5263528735
C        1.6374273004    0.2680784170    1.6559603966
C       -3.1981946762   -0.0092091139    1.1068171674
C       -1.8222056798    0.5490085484   -1.1953209464
C        2.2517645381   -1.5167028441    0.1810505391
C        0.5371302340   -0.4963221358    2.0533838332
C       -2.0119125069    0.7285775030    1.0641963787
N       -1.3271289145    1.0082918978   -0.0355863330
O       -1.5154914309   -0.8489194967    3.6785583736
O        0.0793454556    1.0912003339    4.1384694116
O       -1.4904623272    1.2502896624    2.2500950058
F        3.0982216366   -2.0190046164   -0.7458998740
S       -0.6106980080    0.2010459577    3.2220797839
H       -4.6140905665   -1.0672021305   -0.1300742308
H       -3.3486028666   -0.5541247480   -2.2486745730
H        1.0051718808   -3.2685602838    0.1359321831
H        3.3808596603    0.3049887985    0.3665352534
H       -0.5779846616   -2.3297435581    1.8608467929
H        1.7996245119    1.2526393829    2.0818429458
H       -3.6880020663   -0.1963613495    2.0557785285
H       -1.2497488117    0.7935510299   -2.0880209973
25   
Generated by ForceBalance from scan.xyz: Frame 24 of 24
C       -4.0143427176   -0.2389458420   -0.0215939671
C       -3.3334760245   -0.2029286266   -1.2435837727
C        1.4296058609   -2.2491208491    0.5203267687
C        2.7532330419   -0.2245006964    0.8951677408
C        0.4571938359   -1.7730374158    1.4001054444
C        1.7801430035    0.2484101727    1.7727279214
C       -3.3672771472    0.2204909688    1.1251339413
C       -2.0275195189    0.2914675165   -1.2636606899
C        2.5545101712   -1.4625804779    0.2852613128
C        0.6463205950   -0.5325629390    2.0122111109
C       -2.0614586615    0.6946366194    0.9746677743
N       -1.3903804570    0.7331922546   -0.1676432154
O       -1.5651454317   -0.9678459684    3.3881420036
O       -0.0402249716    0.9432440587    4.1205169761
O       -1.3922555322    1.2067089360    2.0886647200
F        3.4971361511   -1.9201810233   -0.5694288538
S       -0.6203761579    0.1031355866    3.0879740129
H       -5.0309380164   -0.6178635409    0.0382876546
H       -3.8010105346   -0.5482946621   -2.1607809774
H        1.3272271033   -3.2087088570    0.0239028616
H        3.6507269813    0.3460372595    0.6791873181
H       -0.4347014797   -2.3527207039    1.6130068561
H        1.8954247950    1.2083956718    2.2652228533
H       -3.8341033327    0.2124048796    2.1034054004
H       -1.4632656457    0.3360756612   -2.1932060600
