19   

C        1.7385191606   -1.2549284910   -0.1122954581
C        0.7594901460   -0.5074927860    0.5303170635
C        2.7566676330   -1.8500567064    0.6347214563
C        0.8073243061   -0.3575731247    1.9153874422
C        2.8280617124   -1.7222434619    2.0404848157
C        1.8262642399   -0.9506732063    2.6864757229
C        3.9374114945   -2.3782579180    2.7466363214
C        1.8205431983   -0.7130282753    4.1780560382
N        4.0769406315   -2.6266067710    4.0911170537
N        5.0301618460   -2.8515689983    2.1031537344
N        5.2771256179   -3.2533864301    4.2091065013
N        5.8284098891   -3.3840482082    3.0607191332
H        1.7154532380   -1.3771518060   -1.1884544832
H       -0.0338318959   -0.0417549192   -0.0418716704
H        3.5108284592   -2.4301158314    0.1154628155
H        0.0397075368    0.2334162950    2.3998257275
H        1.6341050875   -1.6524866664    4.7071182577
H        2.7824829484   -0.3020018698    4.4992936942
H        1.0396019899   -0.0016289490    4.4605951774
19   

C        1.7130676726   -1.2938640368   -0.1208168858
C        0.7451705942   -0.5272595039    0.5192631025
C        2.7304679939   -1.8895405427    0.6275482371
C        0.8041653019   -0.3561873806    1.9025769377
C        2.8048605819   -1.7452875433    2.0284876693
C        1.8220583411   -0.9504426122    2.6730367226
C        3.9194818294   -2.3869559898    2.7407815494
C        1.8515202980   -0.6869799744    4.1595432984
N        3.9560132831   -2.8263201777    4.0414546594
N        5.1183903895   -2.6198858990    2.1598426355
N        5.2107207415   -3.3257715992    4.1994870856
N        5.8819692053   -3.2074477728    3.1139797574
H        1.6824418797   -1.4283300920   -1.1953100852
H       -0.0466170139   -0.0605272221   -0.0542279266
H        3.4839071640   -2.4825380077    0.1215896733
H        0.0492701895    0.2524113879    2.3851982699
H        1.5998547283   -1.6007442605    4.7062711350
H        2.8468593252   -0.3497316592    4.4649664972
H        1.1320054214    0.0889844086    4.4352164643
19   

C        1.7020019178   -1.3114837468   -0.1259725769
C        0.7479124423   -0.5263886758    0.5158417351
C        2.7150501088   -1.9179122466    0.6205873145
C        0.8167725191   -0.3454368421    1.8986134994
C        2.7904109276   -1.7678567995    2.0176848014
C        1.8298562457   -0.9513841609    2.6651502867
C        3.9059646115   -2.4037067755    2.7384499902
C        1.8879883842   -0.6856441332    4.1499841627
N        3.8596296011   -3.0316827064    3.9576086723
N        5.1751592333   -2.4030973753    2.2762030273
N        5.1449256854   -3.4122954813    4.1881674430
N        5.9038485183   -3.0506923390    3.2191872880
H        1.6644733463   -1.4496757184   -1.1997570460
H       -0.0396914211   -0.0512131901   -0.0564693000
H        3.4661809821   -2.5212200831    0.1234087746
H        0.0758631596    0.2788578468    2.3828436187
H        1.6062450713   -1.5876305931    4.7015376422
H        2.9011689391   -0.3931316866    4.4430886146
H        1.2052097285    0.1210000457    4.4309690734
19   

C        2.0352538371   -0.7398880341   -0.1290086598
C        0.8619330109   -0.3412492970    0.5087350135
C        3.0420817731   -1.3720467921    0.6053995939
C        0.7043066383   -0.5686747748    1.8782802603
C        2.8906584990   -1.6312339081    1.9777833104
C        1.7084956498   -1.2058518280    2.6301188222
C        4.0016554027   -2.2597225452    2.7199436545
C        1.5217674199   -1.3995922258    4.1151092231
N        3.9283833985   -3.3776815205    3.5098655326
N        5.2484913278   -1.7466455279    2.7605333720
N        5.1890004602   -3.5172753117    4.0021283561
N        5.9503008577   -2.5782535774    3.5705593507
H        2.1713125090   -0.5569979855   -1.1880328944
H        0.0779626043    0.1510670812   -0.0539905676
H        3.9643257293   -1.6734648574    0.1220980633
H       -0.2069027147   -0.2419833077    2.3641891546
H        1.4038218996   -2.4638115184    4.3403076252
H        2.3935520730   -1.0201099921    4.6574733333
H        0.6355315635   -0.8675434537    4.4718761691
19   

C        2.0222917037   -0.7553218683   -0.1439355466
C        0.8572330143   -0.3440581860    0.5032274795
C        3.0362519154   -1.3819889003    0.5861507411
C        0.7126494508   -0.5553591731    1.8775405912
C        2.8974648847   -1.6165616502    1.9627401206
C        1.7241320840   -1.1859711032    2.6243539574
C        4.0014419009   -2.2501989891    2.7188404210
C        1.5569553119   -1.3825308613    4.1109832988
N        3.9849366707   -3.5048480103    3.2676885904
N        5.1577401764   -1.6256035124    3.0155042546
N        5.1912295312   -3.6050837190    3.8893171926
N        5.8676545597   -2.5233586025    3.7439756464
H        2.1451442507   -0.5875039858   -1.2070517611
H        0.0682195506    0.1433008951   -0.0567584448
H        3.9510606755   -1.6970852761    0.0979659535
H       -0.1932575137   -0.2233591532    2.3697079496
H        1.5104041300   -2.4510298716    4.3426327301
H        2.4068528834   -0.9458742047    4.6450352310
H        0.6400845639   -0.9066754974    4.4696761389
19   

C        2.0190234531   -0.7821089521   -0.1503747784
C        0.8616003494   -0.3513087652    0.4987479786
C        3.0362863347   -1.3995796685    0.5832681321
C        0.7250747092   -0.5389365459    1.8776323788
C        2.9114550334   -1.5936233301    1.9668733952
C        1.7406401997   -1.1585090924    2.6278390218
C        4.0006464738   -2.2497473894    2.7296371082
C        1.5774295420   -1.3534897927    4.1148718981
N        4.1205641189   -3.5935136402    2.9593400151
N        5.0230584174   -1.5822189202    3.2959847654
N        5.2605933417   -3.6960032828    3.6954725490
N        5.7815371669   -2.5381363659    3.8890082392
H        2.1316800530   -0.6397125090   -1.2183144573
H        0.0699053009    0.1279788332   -0.0644092859
H        3.9412333803   -1.7389562910    0.0931156618
H       -0.1783066405   -0.1998976695    2.3696316094
H        1.6283280968   -2.4191858664    4.3592033289
H        2.3792071559   -0.8344591024    4.6494398963
H        0.6167330237   -0.9613984878    4.4599611448
19   

C        2.0162522617   -0.8110775953   -0.1450158356
C        0.8672459060   -0.3532371721    0.4993873952
C        3.0317832460   -1.4193134818    0.5983263272
C        0.7356367990   -0.5103675636    1.8821553380
C        2.9214957066   -1.5676318704    1.9894390053
C        1.7504629420   -1.1195608555    2.6421232130
C        3.9981609506   -2.2489430616    2.7439291312
C        1.5785967113   -1.2985082017    4.1303143513
N        4.3253895693   -3.5743256895    2.6464453214
N        4.8598830434   -1.6116876866    3.5592653039
N        5.3996079254   -3.7054355357    3.4716148348
N        5.7086878221   -2.5751734093    3.9971510482
H        2.1226237171   -0.7001576903   -1.2173277295
H        0.0762161555    0.1184607435   -0.0710620589
H        3.9259747674   -1.7884033798    0.1095262695
H       -0.1651526794   -0.1579412938    2.3694820901
H        1.6973591510   -2.3534328093    4.3969570070
H        2.3343518841   -0.7154433081    4.6655533005
H        0.5880365864   -0.9673591569    4.4542325027
19   

C        2.0173521723   -0.8415925320   -0.1368020891
C        0.8752620777   -0.3522929839    0.4944130074
C        3.0182146694   -1.4552981982    0.6210679244
C        0.7356890995   -0.4860897713    1.8781231143
C        2.9062723215   -1.5765858363    2.0161713816
C        1.7362815276   -1.0996010505    2.6540212287
C        3.9688229597   -2.2750414679    2.7657164490
C        1.5354834692   -1.2619418007    4.1410041663
N        4.4902713095   -3.5005685715    2.4455276918
N        4.6573535591   -1.7310448502    3.7899223344
N        5.4858565532   -3.6816577300    3.3552834859
N        5.5830851538   -2.6624529405    4.1298827681
H        2.1296957157   -0.7522135393   -1.2105244765
H        0.0947505582    0.1235176713   -0.0870066577
H        3.9049715491   -1.8504423969    0.1386413079
H       -0.1623998884   -0.1125778339    2.3546361700
H        1.7153560052   -2.3008285011    4.4349198850
H        2.2335665093   -0.6174381115    4.6837441374
H        0.5158671546   -0.9932981038    4.4308532190
19   

C        2.0024241214   -0.8662804081   -0.1323988390
C        0.8737623873   -0.3557293236    0.5031731203
C        3.0007068143   -1.4862139049    0.6227986301
C        0.7457870529   -0.4751027553    1.8884388791
C        2.9027742339   -1.5971760763    2.0219132325
C        1.7436361935   -1.0946941457    2.6641849726
C        3.9744814546   -2.2924191061    2.7533898635
C        1.5307428319   -1.2422397224    4.1517357902
N        4.6645689487   -3.3830843216    2.2899402833
N        4.5039126765   -1.8806023832    3.9255309946
N        5.5930858615   -3.6241626854    3.2546212851
N        5.5012509855   -2.7585960797    4.1975064706
H        2.1074777961   -0.7878591360   -1.2077271363
H        0.0945781824    0.1253366448   -0.0757043218
H        3.8773292770   -1.8925620669    0.1310097665
H       -0.1438673728   -0.0851523175    2.3676380978
H        1.7380742383   -2.2703686763    4.4646037016
H        2.1986087309   -0.5654078226    4.6930702241
H        0.4991366572   -1.0042244541    4.4254851322
19   

C        1.9926373573   -0.8805914423   -0.1334816419
C        0.8744851592   -0.3543169464    0.5043252418
C        2.9882035033   -1.5053552767    0.6201759853
C        0.7557964800   -0.4622783642    1.8902838902
C        2.8998683855   -1.6129742853    2.0227449082
C        1.7500598044   -1.0878931681    2.6673893615
C        3.9847233421   -2.2993167802    2.7395063757
C        1.5248045857   -1.2126098680    4.1559758209
N        4.8247705297   -3.2319006433    2.1830277296
N        4.3631397251   -2.0580804643    4.0145574999
N        5.6890102173   -3.5492117167    3.1841223198
N        5.4234075747   -2.8726884778    4.2406852014
H        2.0931887445   -0.8093017043   -1.2097510144
H        0.0968062005    0.1313107344   -0.0727775307
H        3.8568545769   -1.9161830165    0.1181883015
H       -0.1268861364   -0.0574429379    2.3700613786
H        1.6891620686   -2.2449936800    4.4797783778
H        2.2115923570   -0.5531913990    4.6951605436
H        0.5013495196   -0.9349401505    4.4228157071
19   

C        1.9751083001   -0.9093959235   -0.1273339087
C        0.8636336178   -0.3744121991    0.5117852193
C        2.9736330132   -1.5285317046    0.6260299810
C        0.7566733653   -0.4662063279    1.8989318132
C        2.8958956685   -1.6285105727    2.0320643820
C        1.7533187832   -1.0870386955    2.6784127058
C        3.9953571539   -2.2994207211    2.7397823891
C        1.5302022706   -1.1695602972    4.1709888387
N        4.9752242057   -3.0479897130    2.1328919233
N        4.2340750000   -2.2555283306    4.0704810047
N        5.7820423277   -3.4489095308    3.1512302527
N        5.3548801225   -2.9919653487    4.2697877134
H        2.0694530560   -0.8482329405   -1.2047999308
H        0.0832645137    0.1077884542   -0.0645738388
H        3.8359336972   -1.9407316995    0.1146344826
H       -0.1205966095   -0.0495573713    2.3785218361
H        1.6103689760   -2.2070203592    4.5096436479
H        2.2692696916   -0.5571234107    4.6963257344
H        0.5349636635   -0.8060800593    4.4413243185
19   

C        1.9490653771   -0.9392300195   -0.1206442156
C        0.8401433063   -0.4037152616    0.5211322951
C        2.9563330987   -1.5452181648    0.6313393165
C        0.7468496236   -0.4782177020    1.9099013482
C        2.8896277786   -1.6356760368    2.0395685775
C        1.7523652063   -1.0857150915    2.6891941157
C        4.0006950205   -2.2926900077    2.7421174567
C        1.5537868199   -1.1137792051    4.1875480711
N        5.1070252663   -2.8291813019    2.1268050513
N        4.1128394592   -2.4722962588    4.0784265762
N        5.8625817776   -3.3241667827    3.1428340643
N        5.2891787908   -3.1184640343    4.2699204932
H        2.0350259943   -0.8885767898   -1.1993624521
H        0.0529186680    0.0687628759   -0.0539591713
H        3.8146631722   -1.9578497956    0.1138339433
H       -0.1260298291   -0.0545751724    2.3913616184
H        1.5254243440   -2.1473224945    4.5457396681
H        2.3655821713   -0.5758851798    4.6865220948
H        0.6119174221   -0.6355363531    4.4700802412
19   

C        1.9397886157   -0.9758431848   -0.1335047869
C        0.8298734257   -0.4378877850    0.5058310060
C        2.9529504152   -1.5675348081    0.6223665615
C        0.7431784937   -0.4916548890    1.8963838794
C        2.8879203361   -1.6436113369    2.0305377487
C        1.7547527206   -1.0844898192    2.6784273693
C        4.0035603975   -2.2841938382    2.7410324163
C        1.5877412162   -1.0618775579    4.1804182147
N        5.2141476604   -2.6013481537    2.1729717274
N        4.0017280163   -2.6898776219    4.0314136977
N        5.9202006056   -3.1904894102    3.1745263072
N        5.2211160375   -3.2418798472    4.2474121830
H        2.0217931660   -0.9378526135   -1.2130447514
H        0.0385197227    0.0237179692   -0.0724102549
H        3.8128398814   -1.9843008362    0.1106115878
H       -0.1263821164   -0.0605418821    2.3772284915
H        1.4549076540   -2.0796571076    4.5595745676
H        2.4648542693   -0.6091146299    4.6527681797
H        0.7119710412   -0.4749736581    4.4707104527
19   

C        1.9091915563   -1.0027418653   -0.1125583202
C        0.8083409140   -0.4508009354    0.5335770881
C        2.9279570447   -1.5919700959    0.6387151838
C        0.7366356962   -0.4854901800    1.9265072337
C        2.8717613131   -1.6541421603    2.0457227526
C        1.7538471665   -1.0763453883    2.7011190506
C        3.9940132613   -2.2776808864    2.7619233294
C        1.6296957093   -1.0283647340    4.2059234628
N        5.2712757360   -2.3889998692    2.2705929884
N        3.9187161950   -2.8978611801    3.9607069138
N        5.9470868175   -3.0696836162    3.2347927692
N        5.1677194682   -3.3634498207    4.2098522132
H        1.9799797425   -0.9759049927   -1.1932140113
H        0.0137594531    0.0092270377   -0.0414728985
H        3.7852996304   -2.0185930785    0.1305019311
H       -0.1220035276   -0.0408196220    2.4145758568
H        1.4305873070   -2.0305257243    4.5974009607
H        2.5532526420   -0.6455347751    4.6510796349
H        0.8107987571   -0.3713107944    4.5116171887
19   

C        1.9023980746   -1.0182361589   -0.1187303450
C        0.8083531909   -0.4502651535    0.5285405772
C        2.9192315513   -1.6119705470    0.6327662686
C        0.7411283976   -0.4718240645    1.9230256629
C        2.8608232298   -1.6648955661    2.0374840594
C        1.7560233698   -1.0682433815    2.6948031379
C        3.9825596008   -2.2750299477    2.7698264874
C        1.6579078529   -1.0184093106    4.2007196527
N        5.3014294118   -2.1883765039    2.4042656338
N        3.8556228128   -3.0999417212    3.8315526837
N        5.9514059647   -2.9595321388    3.3173499941
N        5.1188487226   -3.4853522018    4.1401709679
H        1.9695608638   -0.9984712651   -1.1997551995
H        0.0162962507    0.0132237245   -0.0471993053
H        3.7769647765   -2.0480028586    0.1331546651
H       -0.1094015345   -0.0143164091    2.4133973999
H        1.4309799383   -2.0143577350    4.5928704801
H        2.6035454355   -0.6746692339    4.6314557031
H        0.8687583694   -0.3318083896    4.5195057070
19   

C        1.8964633119   -1.0353873760   -0.1187470760
C        0.8152936312   -0.4421989180    0.5304201960
C        2.9078560193   -1.6404372151    0.6320771769
C        0.7546015307   -0.4496028926    1.9262317454
C        2.8512657270   -1.6791376454    2.0352382057
C        1.7644236525   -1.0571433436    2.6948285437
C        3.9675159454   -2.2887608050    2.7842942818
C        1.6865544756   -1.0129101213    4.2014028965
N        5.2953656030   -2.0129843088    2.5916415537
N        3.8267416922   -3.2988994247    3.6668802680
N        5.9342511056   -2.8693287235    3.4343396824
N        5.0888954657   -3.6108450492    4.0538212998
H        1.9577661865   -1.0252224152   -1.2002403735
H        0.0282127540    0.0297766425   -0.0452408233
H        3.7593975911   -2.0939218592    0.1376682123
H       -0.0848727217    0.0257388229    2.4186485614
H        1.4991026938   -2.0167659048    4.5943512011
H        2.6290224014   -0.6430901759    4.6173578181
H        0.8806404083   -0.3525308924    4.5333711721
19   

C        1.8705939908   -1.0544100495   -0.1292990009
C        0.8093877775   -0.4412538247    0.5362609247
C        2.8870989242   -1.6699487112    0.6066639216
C        0.7716492930   -0.4408299538    1.9336277793
C        2.8533038840   -1.6931356259    2.0094025463
C        1.7874170653   -1.0575900166    2.6861989474
C        3.9635459484   -2.3212377786    2.7613959464
C        1.7381927219   -1.0267670433    4.1938130592
N        5.2508389369   -1.8598058611    2.8177670284
N        3.8569347220   -3.4949659592    3.4128803299
N        5.8985906814   -2.7942061148    3.5656667119
N        5.0965714355   -3.7369088939    3.9081405353
H        1.9113161803   -1.0523794348   -1.2117999446
H        0.0187325072    0.0381340523   -0.0282665967
H        3.7226908480   -2.1419711791    0.1029653019
H       -0.0536824386    0.0459022001    2.4386352149
H        1.6372122927   -2.0440835689    4.5843014648
H        2.6604696058   -0.5901824485    4.5898780588
H        0.8918352155   -0.4313939552    4.5473690902
19   

C        1.8482181338   -1.0720755211   -0.1390923867
C        0.8045630713   -0.4377973142    0.5354729253
C        2.8740288205   -1.6827015840    0.5883561827
C        0.7898099057   -0.4160936458    1.9334916516
C        2.8707783298   -1.6678791825    1.9909939390
C        1.8153108104   -1.0264682970    2.6776962954
C        3.9666648118   -2.3211818288    2.7465600194
C        1.7844162054   -0.9938502864    4.1856395726
N        5.1318360271   -1.7238205163    3.1445432654
N        3.9413501959   -3.6094885617    3.1355332295
N        5.7986996939   -2.7156636248    3.7953872422
N        5.1141472261   -3.8023302862    3.7898282760
H        1.8659197883   -1.0930269569   -1.2220100322
H        0.0067262411    0.0370234841   -0.0227801923
H        3.6909464486   -2.1796555291    0.0784171457
H       -0.0260808898    0.0795018662    2.4451712005
H        1.7628741096   -2.0144284226    4.5805586093
H        2.6792124118   -0.4914284395    4.5663059896
H        0.9023005605   -0.4598444886    4.5496036958
19   

C        1.8272179574   -1.0904588811   -0.1360683102
C        0.7957033009   -0.4388449523    0.5397341821
C        2.8591059379   -1.6927376553    0.5894122073
C        0.7964732284   -0.3967090940    1.9370612296
C        2.8822410815   -1.6431000673    1.9916497692
C        1.8291141332   -0.9971011061    2.6798095479
C        3.9681802901   -2.3195676378    2.7367815640
C        1.7974492418   -0.9599523918    4.1878762458
N        4.9620368464   -1.7022745439    3.4487015010
N        4.0708075598   -3.6576991052    2.8548130915
N        5.6713625143   -2.7342703933    3.9811127242
N        5.1591057656   -3.8609291645    3.6389841132
H        1.8291076997   -1.1345077240   -1.2184396752
H       -0.0075709757    0.0288406601   -0.0167421217
H        3.6612161941   -2.2113869525    0.0774487698
H       -0.0149674249    0.1048872791    2.4499795674
H        1.8704354575   -1.9755135000    4.5897673628
H        2.6416303947   -0.3739042130    4.5639399044
H        0.8695631100   -0.5090775106    4.5504926196
19   

C        1.8157625233   -1.1055156738   -0.1279547818
C        0.7916345585   -0.4380101013    0.5412772492
C        2.8468489204   -1.7018426816    0.6027986489
C        0.7987253159   -0.3770996263    1.9371161823
C        2.8835714748   -1.6292174262    2.0052937515
C        1.8315385312   -0.9706701225    2.6858215172
C        3.9687841710   -2.3149232206    2.7343806191
C        1.7861371716   -0.9204169074    4.1934912656
N        4.8009103024   -1.7587425234    3.6711350394
N        4.2317044670   -3.6320631096    2.6076443522
N        5.5814410254   -2.7963943984    4.0773233295
N        5.2544759343   -3.8759384998    3.4647799818
H        1.8123454208   -1.1681631309   -1.2094138033
H       -0.0119669154    0.0249799622   -0.0186454335
H        3.6406409985   -2.2355185404    0.0928509137
H       -0.0101203211    0.1332993234    2.4454558120
H        1.9300097448   -1.9227397300    4.6092388490
H        2.5799867348   -0.2673965589    4.5684391575
H        0.8239711791   -0.5371611199    4.5443948251
19   

C        1.8114055729   -1.1223166948   -0.1177409116
C        0.7969055445   -0.4338416243    0.5421076940
C        2.8335501093   -1.7233794538    0.6207109697
C        0.8055726362   -0.3571785910    1.9362430871
C        2.8746337864   -1.6393703907    2.0247449221
C        1.8294205531   -0.9554532675    2.6944537541
C        3.9599924878   -2.3277345958    2.7434725150
C        1.7671644022   -0.8844931835    4.2010414084
N        4.6508287840   -1.8764105230    3.8397652640
N        4.3910727088   -3.5643991358    2.4127319845
N        5.5131014949   -2.8868190964    4.1323400303
N        5.3642957940   -3.8600741226    3.3099546173
H        1.8085736484   -1.1973333201   -1.1984272449
H       -0.0002805024    0.0333199596   -0.0234934615
H        3.6195464639   -2.2695276697    0.1114988352
H        0.0027865679    0.1700614054    2.4369637517
H        1.9144257638   -1.8791190170    4.6335250877
H        2.5484748278   -0.2162721302    4.5754789996
H        0.7970741817   -0.5069710403    4.5360299526
19   

C        1.8006869753   -1.1432648704   -0.1135754682
C        0.7981406506   -0.4345005983    0.5396819590
C        2.8148846384   -1.7511987941    0.6292719237
C        0.8127329496   -0.3432063795    1.9317021354
C        2.8618877488   -1.6617753798    2.0359765664
C        1.8281938520   -0.9488275322    2.6964931493
C        3.9514987207   -2.3480409588    2.7456013570
C        1.7580583705   -0.8481947784    4.2014539380
N        4.5096607226   -2.0277165888    3.9588347250
N        4.5575342931   -3.4537549456    2.2563246309
N        5.4617604629   -2.9774169610    4.1596045109
N        5.4903224383   -3.8004425063    3.1773956494
H        1.7966019816   -1.2275677432   -1.1935897173
H        0.0069136473    0.0388162494   -0.0291683295
H        3.5910022286   -2.3054063384    0.1137094522
H        0.0192180675    0.2032453342    2.4265830995
H        1.8565118839   -1.8404698373    4.6524785691
H        2.5627875386   -0.2056014024    4.5711692427
H        0.8028532197   -0.4236536638    4.5226434753
19   

C        1.7850450758   -1.1875620058   -0.1203930322
C        0.7951761415   -0.4555457335    0.5233278760
C        2.7928619003   -1.7973103219    0.6288602138
C        0.8181464138   -0.3411169131    1.9123858881
C        2.8473026993   -1.6936119805    2.0374209285
C        1.8268858853   -0.9486340175    2.6856255524
C        3.9413727971   -2.3720542649    2.7462663155
C        1.7602627826   -0.7999367145    4.1871928311
N        4.3617240458   -2.2063099030    4.0441512483
N        4.7209919248   -3.3071917447    2.1543707971
N        5.4020107750   -3.0690330660    4.1883991876
N        5.6104215546   -3.7052740990    3.0967723546
H        1.7778061348   -1.2873914107   -1.1990820490
H        0.0090722271    0.0203313596   -0.0504778377
H        3.5567199598   -2.3633225126    0.1082804950
H        0.0355135898    0.2281080462    2.3988574566
H        1.7761758333   -1.7838826337    4.6657953728
H        2.6103520981   -0.2106811074    4.5440896979
H        0.8410838135   -0.2922261800    4.4923622402
19   

C        1.7690018323   -1.2234260919   -0.1251564017
C        0.7811883178   -0.4865486385    0.5147003267
C        2.7815466169   -1.8227624476    0.6257991807
C        0.8131256548   -0.3543157586    1.9014723860
C        2.8426805552   -1.7077621576    2.0346118930
C        1.8264778898   -0.9514359991    2.6772974018
C        3.9456562309   -2.3727523235    2.7424947441
C        1.7803581829   -0.7543785416    4.1742560303
N        4.2170642926   -2.4062428910    4.0896770991
N        4.8977458642   -3.0862967864    2.0958680308
N        5.3456891704   -3.1542510836    4.2048852042
N        5.7398683868   -3.5478279652    3.0524418008
H        1.7571034696   -1.3348710255   -1.2026727568
H       -0.0083636368   -0.0180444291   -0.0604439148
H        3.5406505758   -2.3925027950    0.1026114681
H        0.0347201781    0.2239462990    2.3840471280
H        1.6934642334   -1.7212420460    4.6791664402
H        2.6876079688   -0.2468290772    4.5157218209
H        0.9217195336   -0.1431231651    4.4655775531
