29

C      0.50308    4.86769    3.79933
C     -0.83308    5.27566    3.85652
C      0.95127    4.08641    2.73039
C     -1.72726    4.90442    2.84591
C      0.07958    3.70740    1.70160
C     -1.24645    4.13506    1.79838
C     -0.13583    0.55594    0.89113
C     -0.33312   -1.67178    1.47975
C      0.85566   -1.01135    2.20005
C      0.63210    3.71772   -0.78654
C      0.56883    2.90699    0.51165
N     -0.98560   -0.48017    0.90827
N     -0.30434    1.71444    0.28944
O      0.97671    0.31169    1.56191
F     -2.11838    3.76017    0.80495
H      1.19480    5.15686    4.58446
H     -1.18486    5.88280    4.68514
H      1.99151    3.77222    2.68806
H     -2.76997    5.20584    2.86137
H     -0.01964   -2.35895    0.68874
H     -1.00132   -2.18714    2.17080
H      0.66873   -0.83236    3.25953
H      1.80580   -1.52214    2.05837
H     -0.35275    4.10189   -1.06526
H      1.02547    3.10877   -1.60542
H      1.29483    4.57315   -0.63843
H      1.56096    2.51528    0.73692
H     -1.82093   -0.52198    0.33604
H     -1.20665    1.89872   -0.13957
