19   

C        1.7344519738   -1.2608715346   -0.1114546935
C        0.7564151620   -0.5119514910    0.5310036799
C        2.7538003132   -1.8543086647    0.6352992868
C        0.8060994632   -0.3593058859    1.9157258324
C        2.8280617124   -1.7222434619    2.0404848157
C        1.8262642399   -0.9506732063    2.6864757229
C        3.9374114945   -2.3782579180    2.7466363214
C        1.8229131954   -0.7104563985    4.1776308757
N        4.0725070109   -2.6343070283    4.0900877168
N        5.0301618460   -2.8515689983    2.1031537344
N        5.2720343015   -3.2624032627    4.2080456867
N        5.8257647357   -3.3887713700    3.0602999386
H        1.7096533118   -1.3855945647   -1.1872880869
H       -0.0377355331   -0.0474243579   -0.0410193839
H        3.5069854083   -2.4359023039    0.1163343722
H        0.0389755270    0.2323283464    2.4001578262
H        1.6336103734   -1.6483889566    4.7083862129
H        2.7866946472   -0.3025394327    4.4973071207
H        1.0448550942    0.0042914618    4.4596779633
19   

C        1.7062707572   -1.3035931496   -0.1192112336
C        0.7401707471   -0.5343403935    0.5205616926
C        2.7256092303   -1.8966599370    0.6286552618
C        0.8022159005   -0.3588405633    1.9032244342
C        2.8048605819   -1.7452875433    2.0284876693
C        1.8220583411   -0.9504426122    2.6730367226
C        3.9194818294   -2.3869559898    2.7407815494
C        1.8550795843   -0.6840149762    4.1588899315
N        3.9505355056   -2.8385830219    4.0372754739
N        5.1183903895   -2.6198858990    2.1598426355
N        5.2044514376   -3.3403101430    4.1948816994
N        5.8786831138   -3.2151692252    3.1118553975
H        1.6727062307   -1.4421708012   -1.1930935106
H       -0.0529267876   -0.0694806240   -0.0526393952
H        3.4774139377   -2.4922158969    0.1232593434
H        0.0481456413    0.2507897037    2.3858324542
H        1.6008743561   -1.5957884561    4.7077727592
H        2.8523028816   -0.3503374398    4.4620802095
H        1.1390291101    0.0953199704    4.4340849667
19   

C        1.6933420387   -1.3235048170   -0.1238688850
C        0.7416037279   -0.5350669701    0.5175271968
C        2.7088193766   -1.9267839120    0.6220210376
C        0.8143125858   -0.3486914349    1.8994274844
C        2.7904109276   -1.7678567995    2.0176848014
C        1.8298562457   -0.9513841609    2.6651502867
C        3.9059646115   -2.4037067755    2.7384499902
C        1.8918687784   -0.6827794004    4.1492458943
N        3.8555862389   -3.0458596918    3.9498538966
N        5.1751592333   -2.4030973753    2.2762030273
N        5.1403296038   -3.4292511809    4.1793000773
N        5.9014117371   -3.0597882976    3.2148119639
H        1.6520505503   -1.4667828628   -1.1968478330
H       -0.0476482078   -0.0621746213   -0.0544037501
H        3.4577970031   -2.5332630774    0.1254470456
H        0.0743703617    0.2768063874    2.3835813996
H        1.6103717105   -1.5834605167    4.7030713991
H        2.9061858665   -0.3913627055    4.4394814677
H        1.2107501204    0.1252782147    4.4302094881
19   

C        2.0286108035   -0.7541819179   -0.1320958340
C        0.8570061245   -0.3517764644    0.5065988568
C        3.0373760327   -1.3824633676    0.6030457232
C        0.7022937705   -0.5728240408    1.8775609342
C        2.8906584990   -1.6312339081    1.9777833104
C        1.7084956498   -1.2058518280    2.6301188222
C        4.0016554027   -2.2597225452    2.7199436545
C        1.5248025852   -1.3959449616    4.1158912548
N        3.9319124242   -3.3877076013    3.4955149893
N        5.2484913278   -1.7466455279    2.7605333720
N        5.1933616243   -3.5293817127    3.9852083292
N        5.9525984902   -2.5848684617    3.5617398403
H        2.1617835498   -0.5773146721   -1.1925086590
H        0.0717301439    0.1377369849   -0.0567508845
H        3.9579673246   -1.6875879122    0.1189158201
H       -0.2082621362   -0.2448308938    2.3638150176
H        1.4111356255   -2.4599856769    4.3441918859
H        2.3962094394   -1.0120333487    4.6557179409
H        0.6371920719   -0.8660920493    4.4725189450
19   

C        2.0171103494   -0.7663777107   -0.1461640091
C        0.8533488175   -0.3523164336    0.5016255844
C        3.0325759730   -1.3899733901    0.5844888492
C        0.7110489349   -0.5586907765    1.8769452872
C        2.8974648847   -1.6165616502    1.9627401206
C        1.7241320840   -1.1859711032    2.6243539574
C        4.0014419009   -2.2501989891    2.7188404210
C        1.5590031319   -1.3794418352    4.1115744621
N        3.9904543021   -3.5101776951    3.2552463391
N        5.1577401764   -1.6256035124    3.0155042546
N        5.1979204152   -3.6115350474    3.8744732078
N        5.8712106893   -2.5268811119    3.7361276970
H        2.1377451067   -0.6032163391   -1.2102584679
H        0.0632863179    0.1328026515   -0.0588260084
H        3.9460996973   -1.7079085448    0.0957290016
H       -0.1943923034   -0.2257226937    2.3693145177
H        1.5168548068   -2.4475728378    4.3458309145
H        2.4077314083   -0.9382549296    4.6437406538
H        0.6405655007   -0.9063149472    4.4698765499
19   

C        2.0190320416   -0.7820912350   -0.1503716356
C        0.8616068169   -0.3512955056    0.4987502281
C        3.0362925037   -1.3995669044    0.5832704321
C        0.7250773839   -0.5389311455    1.8776331744
C        2.9114550334   -1.5936233301    1.9668733952
C        1.7406401997   -1.1585090924    2.6278390218
C        4.0006464738   -2.2497473894    2.7296371082
C        1.5774264565   -1.3534946498    4.1148710143
N        4.1205194009   -3.5935055404    2.9594115246
N        5.0230584174   -1.5822189202    3.2959847654
N        5.2605394926   -3.6959931185    3.6955584460
N        5.7815084475   -2.5381308106    3.8890539422
H        2.1316921725   -0.6396872198   -1.2183099314
H        0.0699134870    0.1279957271   -0.0644063623
H        3.9412415778   -1.7389386596    0.0931184491
H       -0.1783047064   -0.1998937924    2.3696321001
H        1.6283165210   -2.4191920469    4.3591983121
H        2.3792075135   -0.8344723739    4.6494420428
H        0.6167327006   -0.9613972240    4.4599609456
19   

C        2.0221597990   -0.7992746539   -0.1431782372
C        0.8717125091   -0.3443313796    0.5007565627
C        3.0360366663   -1.4109320505    0.5996269907
C        0.7374241086   -0.5067793592    1.8826715506
C        2.9214957066   -1.5676318704    1.9894390053
C        1.7504629420   -1.1195608555    2.6421232130
C        3.9981609506   -2.2489430616    2.7439291312
C        1.5765308737   -1.3028881240    4.1295389011
N        4.3144783984   -3.5778127768    2.6598258924
N        4.8598830434   -1.6116876866    3.5592653039
N        5.3865334177   -3.7094808837    3.4877583426
N        5.7017250572   -2.5773595792    4.0057332751
H        2.1309299106   -0.6833647203   -1.2147214503
H        0.0818812412    0.1298038918   -0.0693330320
H        3.9316084470   -1.7771393470    0.1112221856
H       -0.1639335338   -0.1554873688    2.3697666619
H        1.6951404900   -2.3585437554    4.3933414048
H        2.3314972224   -0.7212606648    4.6674593938
H        0.5854899879   -0.9727884487    4.4530479558
19   

C        2.0252556462   -0.8270444900   -0.1347439328
C        0.8812707746   -0.3412532867    0.4958803259
C        3.0238999227   -1.4450405013    0.6225913339
C        0.7380842321   -0.4816156629    1.8786196722
C        2.9062723215   -1.5765858363    2.0161713816
C        1.7362815276   -1.0996010505    2.6540212287
C        3.9688229597   -2.2750414679    2.7657164490
C        1.5328012929   -1.2674417289    4.1400140220
N        4.4764080937   -3.5094100489    2.4581805442
N        4.6573535591   -1.7310448502    3.7899223344
N        5.4693345814   -3.6921393481    3.3705920265
N        5.5743423627   -2.6681295056    4.1379749005
H        2.1407442726   -0.7315593128   -1.2076062048
H        0.1023684044    0.1375879983   -0.0852094555
H        3.9124597300   -1.8369397406    0.1408755873
H       -0.1607736117   -0.1094884815    2.3547663171
H        1.7127076269   -2.3072673829    4.4305735861
H        2.2296383487   -0.6245673966    4.6862882155
H        0.5125396537   -1.0002701813    4.4289395653
19   

C        2.0100196148   -0.8531304625   -0.1307183219
C        0.8795455186   -0.3457225446    0.5043084410
C        3.0061516964   -1.4769742611    0.6241259812
C        0.7480797627   -0.4710406765    1.8887832967
C        2.9027742339   -1.5971760763    2.0219132325
C        1.7436361935   -1.0946941457    2.6641849726
C        3.9744814546   -2.2924191061    2.7533898635
C        1.5282121254   -1.2473160294    4.1508390621
N        4.6526691009   -3.3935962768    2.2978134393
N        4.5039126765   -1.8806023832    3.9255309946
N        5.5790238744   -3.6367185251    3.2641393815
N        5.4938897657   -2.7653845233    4.2024764249
H        2.1180772188   -0.7692301273   -1.2053343661
H        0.1019073413    0.1380855117   -0.0743628029
H        3.8845492288   -1.8806259579    0.1332918966
H       -0.1423229460   -0.0823511989    2.3676170795
H        1.7361209676   -2.2762053272    4.4608136485
H        2.1944807648   -0.5715635706    4.6954895074
H        0.4958814478   -1.0111799181    4.4234725465
19   

C        1.9987479760   -0.8702696825   -0.1322566712
C        0.8791423903   -0.3464439814    0.5051429157
C        2.9925630586   -1.4981120302    0.6211739521
C        0.7576431747   -0.4590798904    1.8905348023
C        2.8998683855   -1.6129742853    2.0227449082
C        1.7500598044   -1.0878931681    2.6673893615
C        3.9847233421   -2.2993167802    2.7395063757
C        1.5226916681   -1.2167987860    4.1552795441
N        4.8162818157   -3.2413988196    2.1865761409
N        4.3631397251   -2.0580804643    4.0145574999
N        5.6790631357   -3.5605531710    3.1883981400
N        5.4182570143   -2.8787735757    4.2428699692
H        2.1017318476   -0.7946946627   -1.2080026913
H        0.1027096054    0.1413341172   -0.0718241736
H        3.8627197249   -1.9068353364    0.1200595468
H       -0.1256480348   -0.0552594426    2.3700477925
H        1.6880058545   -2.2497680837    4.4767192358
H        2.2078362222   -0.5578716028    4.6971557052
H        0.4984643603   -0.9411399595    4.4212349968
19   

C        1.9786069978   -0.9033052969   -0.1266934300
C        0.8663110375   -0.3697451873    0.5122351294
C        2.9761110228   -1.5242599819    0.6265333125
C        0.7577476631   -0.4643032933    1.8990899348
C        2.8958956685   -1.6285105727    2.0320643820
C        1.7533187832   -1.0870386955    2.6784127058
C        3.9953571539   -2.2994207211    2.7397823891
C        1.5288465677   -1.1721954155    4.1706297234
N        4.9709595575   -3.0540347641    2.1335957506
N        4.2340750000   -2.2555283306    4.0704810047
N        5.7770577412   -3.4560855960    3.1520779249
N        5.3523064856   -2.9957676707    4.2702027549
H        2.0743668347   -0.8396189706   -1.2038880350
H        0.0866637667    0.1137288302   -0.0640339983
H        3.8392962782   -1.9351176049    0.1155387152
H       -0.1198722257   -0.0482654395    2.3785705363
H        1.6097989309   -2.2100952110    4.5077439182
H        2.2667994112   -0.5598285461    4.6976167720
H        0.5329697359   -0.8101700821    4.4405660013
19   

C        1.9490658966   -0.9392290272   -0.1206441182
C        0.8401437180   -0.4037144688    0.5211323842
C        2.9563334570   -1.5452174878    0.6313393791
C        0.7468497970   -0.4782173655    1.9099013937
C        2.8896277786   -1.6356760368    2.0395685775
C        1.7523652063   -1.0857150915    2.6891941157
C        4.0006950205   -2.2926900077    2.7421174567
C        1.5537866173   -1.1137796248    4.1875480343
N        5.1070250051   -2.8291817982    2.1268050144
N        4.1128394592   -2.4722962588    4.0784265762
N        5.8625814614   -3.3241673723    3.1428340225
N        5.2891786210   -3.1184643442    4.2699204751
H        2.0350267281   -0.8885753907   -1.1993623173
H        0.0529191986    0.0687639071   -0.0539590461
H        3.8146636469   -1.9578489040    0.1138340259
H       -0.1260296938   -0.0545749117    2.3913616684
H        1.5254241753   -2.1473230103    4.5457393524
H        2.3655818618   -0.5758856713    4.6865223077
H        0.6119171518   -0.6355369115    4.4700802100
19   

C        1.9366600812   -0.9821483314   -0.1339758918
C        0.8274771945   -0.4427106711    0.5054300051
C        2.9507656816   -1.5719843945    0.6220877458
C        0.7421935307   -0.4936035665    1.8961966853
C        2.8879203361   -1.6436113369    2.0305377487
C        1.7547527206   -1.0844898192    2.6784273693
C        4.0035603975   -2.2841938382    2.7410324163
C        1.5891889996   -1.0592689277    4.1805292164
N        5.2167108702   -2.5946221663    2.1748212051
N        4.0017280163   -2.6898776219    4.0314136977
N        5.9232859987   -3.1825710804    3.1767280746
N        5.2227910838   -3.2377352473    4.2485401504
H        2.0173488260   -0.9467423781   -1.2137024984
H        0.0354672708    0.0175908825   -0.0729523969
H        3.8100097083   -1.9902697579    0.1104769391
H       -0.1270491915   -0.0618526393    2.3770439666
H        1.4556687172   -2.0763174647    4.5614079386
H        2.4672180893   -0.6067019142    4.6513605824
H        0.7142948638   -0.4709882772    4.4706755002
19   

C        1.9039578193   -1.0135681056   -0.1131996124
C        0.8043547702   -0.4590399206    0.5329705395
C        2.9243149847   -1.5996457368    0.6383984581
C        0.7349964703   -0.4887884859    1.9261826884
C        2.8717613131   -1.6541421603    2.0457227526
C        1.7538471665   -1.0763453883    2.7011190506
C        3.9940132613   -2.2776808864    2.7619233294
C        1.6320387001   -1.0242444147    4.2059601502
N        5.2741830063   -2.3773086440    2.2760060744
N        3.9187161950   -2.8978611801    3.9607069138
N        5.9506621980   -3.0558861132    3.2412793028
N        5.1697491992   -3.3561870603    4.2132093625
H        1.9725135604   -0.9911410103   -1.1940988547
H        0.0086759306   -0.0012286511   -0.0423310108
H        3.7806932206   -2.0287776416    0.1306546809
H       -0.1231228377   -0.0430265484    2.4141704075
H        1.4322423576   -2.0251549784    4.6002854521
H        2.5567758674   -0.6415568108    4.6487823353
H        0.8144343492   -0.3653362717    4.5111179696
19   

C        1.8956158153   -1.0319067353   -0.1194221158
C        0.8032037375   -0.4606506628    0.5278718122
C        2.9145161310   -1.6216858025    0.6324168609
C        0.7390155988   -0.4759781587    1.9226432067
C        2.8608232298   -1.6648955661    2.0374840594
C        1.7560233698   -1.0682433815    2.6948031379
C        3.9825596008   -2.2750299477    2.7698264874
C        1.6607658327   -1.0134299692    4.2007104240
N        5.3029806191   -2.1739051834    2.4143750420
N        3.8556228128   -3.0999417212    3.8315526837
N        5.9533355560   -2.9423884335    3.3295259206
N        5.1200384457   -3.4762586630    4.1465612511
H        1.9598623486   -1.0177064351   -1.2007107895
H        0.0097213874    0.0000389546   -0.0481521227
H        3.7709379796   -2.0607861557    0.1332498608
H       -0.1108610367   -0.0171145802    2.4128807426
H        1.4336136053   -2.0079293492    4.5964057561
H        2.6075526409   -0.6693550341    4.6286475191
H        0.8728484395   -0.3250508235    4.5186998215
19   

C        1.8886147478   -1.0500983092   -0.1193108895
C        0.8093505824   -0.4533578218    0.5298985151
C        2.9023789887   -1.6509132885    0.6317415238
C        0.7521777026   -0.4540780831    1.9259267863
C        2.8512657270   -1.6791376454    2.0352382057
C        1.7644236525   -1.0571433436    2.6948285437
C        3.9675159454   -2.2887608050    2.7842942818
C        1.6897039830   -1.0075725313    4.2013818724
N        5.2941708441   -1.9985003488    2.6064478178
N        3.8267416922   -3.2988994247    3.6668802680
N        5.9327654517   -2.8521292453    3.4522042575
N        5.0882178632   -3.6016722370    4.0632836297
H        1.9465286441   -1.0459649652   -1.2010304100
H        0.0206210090    0.0155981257   -0.0459740509
H        3.7521746216   -2.1077483091    0.1374519121
H       -0.0865468204    0.0227018236    2.4182307414
H        1.5026702517   -2.0100126309    4.5981416764
H        2.6331999180   -0.6368020810    4.6141508227
H        0.8847207586   -0.3457294449    4.5326822731
19   

C        1.8639558690   -1.0659630061   -0.1295399525
C        0.8043853547   -0.4499760295    0.5360612643
C        2.8824177564   -1.6782004700    0.6064840040
C        0.7696294027   -0.4443290007    1.9335133376
C        2.8533038840   -1.6931356259    2.0094025463
C        1.7874170653   -1.0575900166    2.6861989474
C        3.9635459484   -2.3212377786    2.7613959464
C        1.7407326258   -1.0225715261    4.1938001302
N        5.2467595808   -1.8507512142    2.8323150753
N        3.8569347220   -3.4949659592    3.4128803299
N        5.8935845597   -2.7834438194    3.5831899344
N        5.0939328808   -3.7311581133    3.9174620107
H        1.9018172966   -1.0687336417   -1.2121430866
H        0.0123487789    0.0270467142   -0.0285336780
H        3.7163574298   -2.1529852654    0.1026785622
H       -0.0550608321    0.0435215042    2.4384896270
H        1.6403227376   -2.0388308880    4.5871927998
H        2.6637261821   -0.5850655486    4.5871698326
H        0.8950067118   -0.4261738957    4.5471321060
19   

C        1.8482058022   -1.0720962391   -0.1390923037
C        0.8045538463   -0.4378128814    0.5354729014
C        2.8740199528   -1.6827164519    0.5883562680
C        0.7898061871   -0.4161000010    1.9334915297
C        2.8707783298   -1.6678791825    1.9909939390
C        1.8153108104   -1.0264682970    2.6776962954
C        3.9666648118   -2.3211818288    2.7465600194
C        1.7844193578   -0.9938436918    4.1856395932
N        5.1317983371   -1.7237970960    3.1446189230
N        3.9413501959   -3.6094885617    3.1355332295
N        5.7986539639   -2.7156356264    3.7954780715
N        5.1141227230   -3.8023154172    3.7898765893
H        1.8659021116   -1.0930563965   -1.2220098672
H        0.0067144415    0.0370036806   -0.0227801402
H        3.6909340931   -2.1796756401    0.0784168694
H       -0.0260835198    0.0794973177    2.4451710614
H        1.7628865266   -2.0144202119    4.5805633552
H        2.6792122399   -0.4914128745    4.5663019016
H        0.9023001080   -0.4598436420    4.5496033623
19   

C        1.8336637917   -1.0798625479   -0.1363752170
C        0.8005059349   -0.4309273001    0.5395680374
C        2.8638011930   -1.6851321896    0.5891334086
C        0.7983886016   -0.3934944294    1.9370471689
C        2.8822410815   -1.6431000673    1.9916497692
C        1.8291141332   -0.9971011061    2.6798095479
C        3.9681802901   -2.3195676378    2.7367815640
C        1.7959821466   -0.9634062255    4.1878836876
N        4.9703700790   -1.7022169050    3.4366908256
N        4.0708075598   -3.6576991052    2.8548130915
N        5.6814409109   -2.7342410489    3.9667872966
N        5.1645371232   -3.8608686378    3.6314236114
H        1.8382516362   -1.1194134883   -1.2189120775
H       -0.0014609869    0.0389064636   -0.0169842796
H        3.6675919940   -2.2010977199    0.0770847606
H       -0.0136103502    0.1071630229    2.4499982285
H        1.8647033529   -1.9801926139    4.5873968071
H        2.6421159186   -0.3815590889    4.5661262321
H        0.8695101067   -0.5097079924    4.5506028458
19   

C        1.8241497954   -1.0918665243   -0.1285440346
C        0.7977723971   -0.4279657307    0.5409819088
C        2.8530480804   -1.6919850135    0.6022549095
C        0.8010888185   -0.3731121582    1.9371261893
C        2.8835714748   -1.6292174262    2.0052937515
C        1.8315385312   -0.9706701225    2.6858215172
C        3.9687841710   -2.3149232206    2.7343806191
C        1.7847344593   -0.9250116158    4.1935278130
N        4.8121274043   -1.7542419601    3.6580869516
N        4.2317044670   -3.6320631096    2.6076443522
N        5.5950146319   -2.7910987935    4.0619613813
N        5.2618161196   -3.8730338837    3.4568125025
H        1.8242277040   -1.1486744255   -1.2103306065
H       -0.0041906751    0.0376958880   -0.0190740459
H        3.6490607386   -2.2221666613    0.0921200021
H       -0.0085046797    0.1359833152    2.4455797733
H        1.9253214632   -1.9290409786    4.6062442729
H        2.5803699364   -0.2757039799    4.5711738557
H        0.8234380527   -0.5397773643    4.5446578654
19   

C        1.8193917126   -1.1096757792   -0.1183873169
C        0.8026676369   -0.4246381174    0.5417992169
C        2.8394918023   -1.7142156877    0.6201329345
C        0.8077177298   -0.3536131225    1.9362968237
C        2.8746337864   -1.6393703907    2.0247449221
C        1.8294205531   -0.9554532675    2.6944537541
C        3.9599924878   -2.3277345958    2.7434725150
C        1.7659241540   -0.8892124631    4.2011399100
N        4.6614928786   -1.8686997754    3.8295384783
N        4.3910727088   -3.5643991358    2.4127319845
N        5.5259902979   -2.8777574190    4.1205320273
N        5.3712623143   -3.8551826293    3.3039976499
H        1.8198920102   -1.1792657437   -1.1994397547
H        0.0069952641    0.0449248479   -0.0239441856
H        3.6276501786   -2.2571428375    0.1108124046
H        0.0041850580    0.1722896862    2.4372238155
H        1.9143111039   -1.8849140780    4.6307433565
H        2.5463749490   -0.2213560827    4.5780390372
H        0.7951637655   -0.5137302652    4.5364889069
19   

C        1.8072230278   -1.1332469702   -0.1141892435
C        0.8028927863   -0.4271395357    0.5393571293
C        2.8197029830   -1.7439849688    0.6287678348
C        0.8145027913   -0.3403531394    1.9317306103
C        2.8618877488   -1.6617753798    2.0359765664
C        1.8281938520   -0.9488275322    2.6964931493
C        3.9514987207   -2.3480409588    2.7456013570
C        1.7566110510   -0.8526436964    4.2016274238
N        4.5184047186   -2.0188589839    3.9522688975
N        4.5575342931   -3.4537549456    2.2563246309
N        5.4722495504   -2.9670705366    4.1521842509
N        5.4959443203   -3.7949393828    3.1737743599
H        1.8058675177   -1.2132657180   -1.1945356728
H        0.0129216887    0.0481051874   -0.0296305437
H        3.5976120317   -2.2956786778    0.1131978679
H        0.0203515044    0.2049649430    2.4268401875
H        1.8587802132   -1.8457091084    4.6500782372
H        2.5588100026   -0.2081388565    4.5735232931
H        0.7995775811   -0.4325438010    4.5232221007
19   

C        1.7890721815   -1.1815668364   -0.1208971588
C        0.7981934787   -0.4510191179    0.5230014018
C        2.7957572157   -1.7930628028    0.6284811645
C        0.8193147317   -0.3393201717    1.9123255886
C        2.8473026993   -1.6936119805    2.0374209285
C        1.8268858853   -0.9486340175    2.6856255524
C        3.9413727971   -2.3720542649    2.7462663155
C        1.7587431118   -0.8030972623    4.1874141703
N        4.3670386700   -2.1996329624    4.0415079639
N        4.7209919248   -3.3071917447    2.1543707971
N        5.4082870643   -3.0612839456    4.1854549453
N        5.6137318648   -3.7012135944    3.0953655007
H        1.7835160922   -1.2788582943   -1.1998277813
H        0.0129088189    0.0260777714   -0.0509128213
H        3.5606919616   -2.3575825393    0.1078552281
H        0.0362725392    0.2292195951    2.3989397490
H        1.7780423531   -1.7878622126    4.6642035782
H        2.6065317492   -0.2114946495    4.5459059467
H        0.8375159819   -0.2993080400    4.4929108700
19   

C        1.7690030179   -1.2234243109   -0.1251565919
C        0.7811892788   -0.4865471929    0.5147001732
C        2.7815474154   -1.8227612553    0.6257990478
C        0.8131260637   -0.3543151457    1.9014723238
C        2.8426805552   -1.7077621576    2.0346118930
C        1.8264778898   -0.9514359991    2.6772974018
C        3.9456562309   -2.3727523235    2.7424947441
C        1.7803575219   -0.7543795136    4.1742561420
N        4.2170650389   -2.4062417837    4.0896769761
N        4.8977458642   -3.0862967864    2.0958680308
N        5.3456900185   -3.1542498265    4.2048850638
N        5.7398688236   -3.5478273177    3.0524417284
H        1.7571051371   -1.3348684965   -1.2026730282
H       -0.0083623825   -0.0180425436   -0.0604441127
H        3.5406516363   -2.3925012117    0.1026112877
H        0.0347204840    0.2239467549    2.3840470847
H        1.6934642601   -1.7212434009    4.6791659402
H        2.6876067576   -0.2468294688    4.5157225285
H        0.9217182365   -0.1431250738    4.4655777669
