24   

C       -4.2534858188   -1.0923241927    5.2354980450
C       -4.4072098457   -0.5769536908    3.9335697663
C       -2.0772034625   -1.5831338601    4.7813885975
C       -2.2078636642   -1.0693910811    3.4642395860
C       -1.1513787710   -0.5771747403    1.2116694518
C       -0.0365808365   -0.5511808993    0.4173173485
C       -1.0318912658   -1.0975458541    2.5615122465
C       -0.9539103044    0.9614748458   -1.2966596545
C        1.3946641842    0.0113694031   -1.4857863322
N       -3.0894701755   -1.6007588407    5.6753562477
N       -3.4001020755   -0.5586883285    3.0426397334
N        0.1311845658    0.1350126058   -0.7389896955
O        0.0352564027   -1.5613261118    2.9578164559
H       -5.1062358968   -1.0767140753    5.9038389274
H       -5.3716276347   -0.1805633792    3.6384567536
H       -1.1226702816   -1.9852372898    5.1009314795
H       -2.0825149845   -0.1364400221    0.8857074766
H        0.8384182263   -1.0821347636    0.7850100869
H       -1.3010771513    1.6871011808   -0.5541983205
H       -1.7912555204    0.3273829384   -1.6055243587
H       -0.6035533464    1.5169911657   -2.1722935360
H        1.2649322266   -0.6738513479   -2.3298106224
H        2.1932040283   -0.3740738454   -0.8437752982
H        1.7117697177    0.9887789099   -1.8625808417
24   

C       -4.2321396313   -1.0184331117    5.2397839460
C       -4.4227921605   -0.6467880552    3.8945199162
C       -2.0484073339   -1.4872920086    4.7980441515
C       -2.2158735947   -1.1168323727    3.4377671625
C       -1.2022955628   -0.8069492570    1.1327491529
C       -0.0831200804   -0.7225167118    0.3445910135
C       -1.0511098473   -1.1927808280    2.5234116666
C       -0.9490316794    0.9947061943   -1.1926674628
C        1.3969344449    0.0508987743   -1.4444516972
N       -3.0456797425   -1.4429447461    5.7078374051
N       -3.4306764007   -0.6903775287    2.9878255822
N        0.1175053245    0.0964684538   -0.7163210281
O        0.0386603177   -1.5742366845    2.9448448978
H       -5.0742098073   -0.9582799333    5.9190496593
H       -5.4038898996   -0.3125910344    3.5781405572
H       -1.0758838694   -1.8224511647    5.1397927348
H       -2.1488337617   -0.4115500386    0.7929659558
H        0.7926421466   -1.2635904275    0.6956511560
H       -1.3281419405    1.6080842140   -0.3690313910
H       -1.7709843329    0.4114764250   -1.6202158706
H       -0.5675191750    1.6690597418   -1.9658155202
H        1.2837051247   -0.5340658947   -2.3630202477
H        2.1796512201   -0.4090528717   -0.8327516096
H        1.7255135038    1.0626359966   -1.7017991546
24   

C       -4.1910276143   -0.9197451485    5.2363379183
C       -4.4145005965   -0.6940724841    3.8640327570
C       -1.9946533912   -1.3391781497    4.8070333201
C       -2.1950752373   -1.1150118059    3.4196171009
C       -1.2221540780   -0.9951239950    1.0789230888
C       -0.1104440819   -0.8616522626    0.2803462004
C       -1.0389014641   -1.2300990674    2.4984524936
C       -0.9411121458    1.0288001697   -1.0563376021
C        1.3948463716    0.0870320896   -1.4008715038
N       -2.9815078449   -1.2451186384    5.7244532814
N       -3.4328950577   -0.7875669357    2.9497707082
N        0.1101841978    0.0671360986   -0.6809429263
O        0.0735537548   -1.5155194364    2.9360108015
H       -5.0262852974   -0.8261474931    5.9202188124
H       -5.4128887678   -0.4342432189    3.5322655312
H       -1.0041248320   -1.5966871726    5.1640364563
H       -2.1866049694   -0.6547315819    0.7296377104
H        0.7679551497   -1.4145168435    0.6057624535
H       -1.3373377329    1.5289473645   -0.1668221899
H       -1.7552550722    0.5140232155   -1.5765901766
H       -0.5384547684    1.7984868418   -1.7222932761
H        1.2830145261   -0.3940213570   -2.3780457531
H        2.1680994224   -0.4446498812   -0.8371874079
H        1.7354207652    1.1170451185   -1.5452587912
24   

C       -4.1565241503   -0.8108130787    5.2137524200
C       -4.4051073923   -0.7371083801    3.8292966356
C       -1.9466875515   -1.1666270175    4.7954002983
C       -2.1723555159   -1.0950593761    3.3957717621
C       -1.2278250986   -1.1769450052    1.0417766891
C       -0.1363085179   -1.0005074660    0.2132370898
C       -1.0210837146   -1.2459163426    2.4735240764
C       -0.9492708318    1.0297842925   -0.9039726481
C        1.3673248996    0.0945173961   -1.3771029409
N       -2.9274531892   -1.0268565823    5.7136107025
N       -3.4297308433   -0.8769268288    2.9143527500
N        0.0891567358    0.0159717419   -0.6496483034
O        0.1106365474   -1.4230836734    2.9183143170
H       -4.9882001664   -0.6875762366    5.8973028206
H       -5.4182545406   -0.5594795563    3.4881676571
H       -0.9409997669   -1.3390742788    5.1611123482
H       -2.2124904386   -0.9074988111    0.6866154216
H        0.7474674402   -1.5658163125    0.5003301241
H       -1.3438709322    1.4192940458    0.0399666429
H       -1.7672084990    0.5943567909   -1.4868738072
H       -0.5343140093    1.8724465473   -1.4659172802
H        1.2361824961   -0.2659281282   -2.4026045606
H        2.1343514728   -0.5154536682   -0.8893226220
H        1.7283867353    1.1273279144   -1.4034110769
24   

C       -4.1297858292   -0.7228206052    5.1690044688
C       -4.3950040090   -0.8062034880    3.7882608288
C       -1.9052540961   -0.9787866630    4.7545470908
C       -2.1476240203   -1.0648708877    3.3586366183
C       -1.2183900738   -1.3388691455    1.0146078211
C       -0.1552188538   -1.1293624677    0.1424300428
C       -0.9971777362   -1.2357045441    2.4386459039
C       -0.9374928977    1.0226013479   -0.7296965683
C        1.3308565013    0.0748545591   -1.3800345194
N       -2.8848313133   -0.8085882093    5.6689803795
N       -3.4208521909   -0.9768094316    2.8773453954
N        0.0728800027   -0.0445770503   -0.6234618472
O        0.1485329382   -1.2880705364    2.8791928933
H       -4.9616088735   -0.5835132908    5.8492829475
H       -5.4204073205   -0.7280744836    3.4464101817
H       -0.8872950672   -1.0497573515    5.1200501012
H       -2.2231907555   -1.1604574449    0.6581505978
H        0.7283941886   -1.7213849281    0.3688608991
H       -1.2951586231    1.3128476310    0.2634588754
H       -1.7840669642    0.6824410900   -1.3345748456
H       -0.5085670512    1.9117428618   -1.2024697948
H        1.1547779293   -0.1551308523   -2.4359001355
H        2.0876456168   -0.6163735492   -0.9956205028
H        1.7314039257    1.0898614374   -1.2958453557
24   

C       -4.1395134338   -0.9097508633    5.3196894875
C       -4.4542551501   -1.3094041468    4.0062972584
C       -2.1238669326   -0.1347496306    4.5978048054
C       -2.4162074494   -0.5333669544    3.2668664164
C       -1.6524061687   -0.7380593230    0.8556710597
C       -0.5977991070   -0.9828354996   -0.0419927085
C       -1.3905066287   -0.3283084912    2.2149040421
C       -0.2483708892    1.3597700747   -0.6108188682
C        0.9705229476   -0.4926998016   -1.8447793154
N       -2.9749428801   -0.3149908715    5.6310948861
N       -3.6099193051   -1.1256063833    2.9760201416
N       -0.0331895475   -0.0787168568   -0.8505829540
O       -0.2998922112    0.1556677935    2.5055159011
H       -4.8638098244   -1.0913789957    6.1048745568
H       -5.4090789461   -1.7865068456    3.8190768525
H       -1.1700576547    0.3330300462    4.8130384742
H       -2.5795777790   -1.2678385064    0.6871625117
H       -0.4878544769   -2.0189490663   -0.3485192792
H       -1.3166900933    1.5781705831   -0.5150563249
H        0.1385219950    1.9495069968   -1.4476456291
H        0.2672585751    1.6727323445    0.3028605906
H        0.7433303785   -0.0479461614   -2.8186681278
H        0.9815660033   -1.5807156922   -1.9641433579
H        1.9676166312   -0.1717961613   -1.5260743494
24   

C       -4.0864014558   -0.8307998704    5.3035163061
C       -4.4016925779   -1.3390326418    4.0283439775
C       -2.1120446594   -0.0356665283    4.4952330955
C       -2.4053843865   -0.5424426776    3.2014542693
C       -1.6704110245   -0.8971669345    0.8017764989
C       -0.6427459250   -1.0746836508   -0.1276012808
C       -1.4059907922   -0.3667819504    2.1185802547
C       -0.2828950054    1.3211280171   -0.5256158475
C        0.9838152934   -0.4431922548   -1.8308851798
N       -2.9418907829   -0.1713832922    5.5522650754
N       -3.5780158775   -1.2012323983    2.9743727889
N       -0.0356841461   -0.1021281923   -0.8251401556
O       -0.3404367948    0.1935405598    2.3611025970
H       -4.7935408344   -0.9796407845    6.1109213791
H       -5.3402106650   -1.8632555920    3.8915575331
H       -1.1754040245    0.4839904859    4.6612736452
H       -2.5507380630   -1.5166273772    0.7010023679
H       -0.5776246561   -2.0690532460   -0.5594801134
H       -1.3429838498    1.4970178991   -0.3176530540
H       -0.0085836500    1.9437696371   -1.3827484419
H        0.3120863627    1.6376053146    0.3367666499
H        0.8043595918    0.1124029055   -2.7566118598
H        0.9610620223   -1.5113142763   -2.0689922371
H        1.9803666245   -0.1961022449   -1.4505977666
24   

C       -4.0703722965   -0.7897652201    5.2711355387
C       -4.3643970782   -1.3798807159    4.0265655708
C       -2.1193414701    0.0206927484    4.4225997783
C       -2.3916670239   -0.5674529216    3.1587286156
C       -1.6434146842   -1.0349694144    0.7869596276
C       -0.6717114441   -1.1362251631   -0.2011565663
C       -1.3992329374   -0.4120430837    2.0656800810
C       -0.3063399095    1.2885289974   -0.4851704192
C        0.9921889686   -0.4174756702   -1.8290988814
N       -2.9480999381   -0.0816046465    5.4842511671
N       -3.5414052572   -1.2765860168    2.9681387792
N       -0.0237050764   -0.1245103156   -0.8044243313
O       -0.3601874584    0.2055288866    2.2813936651
H       -4.7760042422   -0.9138060502    6.0840306477
H       -5.2859141464   -1.9396122155    3.9178030066
H       -1.2012126719    0.5799837399    4.5608997727
H       -2.4817980985   -1.7153974474    0.7311669400
H       -0.6438886436   -2.0892771552   -0.7212343134
H       -1.3509605770    1.4229162172   -0.1878907879
H       -0.1335471056    1.9183453521   -1.3631881031
H        0.3463216743    1.6342838365    0.3224705486
H        0.8389416025    0.2145509215   -2.7094269657
H        0.9374202507   -1.4618787092   -2.1520985731
H        1.9928393957   -0.2332328020   -1.4247873064
24   

C       -4.0643310337   -0.7850716838    5.2646950661
C       -4.3172691415   -1.4486719689    4.0484853447
C       -2.1369432101    0.0620974970    4.3981927090
C       -2.3687920302   -0.5981251869    3.1619624801
C       -1.5839466990   -1.1410987087    0.8205544347
C       -0.6917623998   -1.1569314940   -0.2359213362
C       -1.3770794820   -0.4434855110    2.0676102065
C       -0.3212409553    1.2827365125   -0.4374764305
C        0.9796295789   -0.3796695955   -1.8268263870
N       -2.9743959474   -0.0220190936    5.4546308810
N       -3.4851708677   -1.3645846635    2.9955259841
N       -0.0133507653   -0.1221979762   -0.7701481082
O       -0.3744738163    0.2368501194    2.2639983741
H       -4.7758762419   -0.8960934659    6.0743094833
H       -5.2143237384   -2.0497672798    3.9573990545
H       -1.2457450261    0.6673096660    4.5180200324
H       -2.3750569192   -1.8778659738    0.8005808347
H       -0.6998626383   -2.0717222048   -0.8213476479
H       -1.3525372204    1.3874022539   -0.0867866044
H       -0.2128084611    1.9162949463   -1.3229952666
H        0.3619840291    1.6491667449    0.3350858715
H        0.8488105200    0.3238074298   -2.6550801280
H        0.8747690275   -1.3921493090   -2.2293241817
H        1.9908561374   -0.2710109126   -1.4215821351
24   

C       -4.0802513867   -0.7797637556    5.2845518434
C       -4.2723510667   -1.5103117187    4.0959560284
C       -2.1776544227    0.1225630644    4.4189293598
C       -2.3491980109   -0.6031096959    3.2096784837
C       -1.4985354885   -1.1997773682    0.9056888591
C       -0.6867210470   -1.1501980025   -0.2079793935
C       -1.3497780076   -0.4371435998    2.1234417667
C       -0.2497546811    1.2842167954   -0.3635868033
C        0.9918160627   -0.3811929483   -1.7937936257
N       -3.0332551053    0.0441153998    5.4611913068
N       -3.4216150202   -1.4329086747    3.0575103049
N        0.0381600647   -0.1236503713   -0.7009454782
O       -0.3945188223    0.3106343959    2.3071755037
H       -4.8045684392   -0.8880215111    6.0831386479
H       -5.1371619668   -2.1581900277    4.0142572156
H       -1.3216989074    0.7785269697    4.5280288947
H       -2.2439465867   -1.9830069240    0.9122222381
H       -0.7390450200   -2.0376660398   -0.8319898788
H       -1.2720491925    1.3979756919    0.0098978838
H       -0.1559717979    1.9163060166   -1.2518085813
H        0.4548349470    1.6456962111    0.3920124881
H        0.8280179185    0.3193062571   -2.6187790121
H        0.8769364683   -1.3953514388   -2.1893353576
H        2.0171411518   -0.2688681052   -1.4269835952
24   

C       -4.1094082625   -0.8451889622    5.2762670045
C       -4.2331913416   -1.6263879164    4.1110973626
C       -2.2482259790    0.1418101759    4.4130968476
C       -2.3521500864   -0.6327181870    3.2264509074
C       -1.4375818495   -1.2360624583    0.9483084519
C       -0.7074214669   -1.1301505869   -0.2149245612
C       -1.3507522965   -0.4327926589    2.1469945195
C       -0.1227075462    1.2774788764   -0.3201442388
C        0.9586044826   -0.4134402829   -1.8363352515
N       -3.1174953076    0.0461544021    5.4425346448
N       -3.3684954411   -1.5323433262    3.0856370002
N        0.0783114649   -0.1372382502   -0.6875251050
O       -0.4528608718    0.3839883196    2.3215149555
H       -4.8422432108   -0.9693137478    6.0647099208
H       -5.0558304147   -2.3278524205    4.0367320906
H       -1.4375837179    0.8542688680    4.5135435843
H       -2.1425438693   -2.0556019504    0.9707216621
H       -0.8188778889   -1.9917392781   -0.8669268392
H       -1.1366856122    1.4446557003    0.0560551338
H        0.0087807622    1.9215682423   -1.1949197065
H        0.6048640217    1.5799750484    0.4396119705
H        0.7075079699    0.2417695375   -2.6765746410
H        0.8569107928   -1.4493842200   -2.1750519699
H        2.0031781648   -0.2498414712   -1.5527713123
24   

C       -4.1610917740   -1.0384337271    5.2441534874
C       -4.0862544794   -1.9025397394    4.1351157832
C       -2.6517491946    0.3524634320    4.2581080799
C       -2.5567398759   -0.5028558091    3.1272710354
C       -1.5270759145   -0.9974824839    0.8717003549
C       -0.7970772749   -0.9363281863   -0.3019619378
C       -1.6409912070   -0.1278209898    2.0157443199
C        0.3772182819    1.2555193339   -0.2984968222
C        0.6943008586   -0.4091358131   -2.1546181284
N       -3.4475854661    0.0978897375    5.3195833950
N       -3.2958309782   -1.6493520169    3.0774495582
N        0.0823792326   -0.0751386148   -0.8552301653
O       -0.9877746208    0.9032367687    2.1186464099
H       -4.8183598436   -1.3025868806    6.0641017656
H       -4.6863410726   -2.8049201661    4.1331453937
H       -2.0612829420    1.2608190234    4.2886830429
H       -2.1367240170   -1.8886483869    0.9241431090
H       -0.9811646135   -1.8191598315   -0.9074505199
H        0.9059351065    1.8693775576   -1.0338421435
H        1.0159562808    1.1665921731    0.5855369375
H       -0.5467740313    1.7859010808   -0.0541184178
H        0.5012161001    0.3888138008   -2.8789101844
H        0.2836763102   -1.3370228917   -2.5651115943
H        1.7754210454   -0.5353586839   -2.0388500239
24   

C       -4.0074251483   -0.9153801917    5.3366429705
C       -3.7832002820   -1.9201999511    4.3757741812
C       -2.9579900548    0.5962935143    3.9962150557
C       -2.7172288931   -0.3996998225    3.0119026149
C       -1.7574556139   -1.0296602556    0.7596176500
C       -1.0039566311   -0.9402337189   -0.3901528568
C       -1.9841780122   -0.0257730684    1.7746067114
C        0.7454098209    0.7197590303    0.1865087655
C        0.3726813639   -0.0398020416   -2.1824453699
N       -3.5995767538    0.3528304246    5.1596629196
N       -3.1446745912   -1.6792616096    3.2171748228
N       -0.0712110578   -0.0422867246   -0.7774563231
O       -1.6251045618    1.1381453841    1.6327208698
H       -4.5271656881   -1.1777506883    6.2504965739
H       -4.1363813756   -2.9246685487    4.5773279562
H       -2.6127663138    1.6090643037    3.8231704487
H       -2.2746710543   -1.9698505756    0.8924209088
H       -1.1830990880   -1.7592313446   -1.0808157572
H        1.7825146193    0.7821904384   -0.1568329489
H        0.7568164115    0.2292542309    1.1647263655
H        0.3580588236    1.7381183307    0.2913686354
H        0.1518635795    0.9293809614   -2.6409536550
H       -0.1388533000   -0.8145522191   -2.7623905202
H        1.4491091199   -0.2292884943   -2.2436836462
24   

C       -3.9779886625   -0.9011044160    5.3082465554
C       -3.6837810681   -1.9395614232    4.4035661687
C       -2.9952044828    0.5969939749    3.9035811592
C       -2.6863100645   -0.4327166874    2.9748123281
C       -1.6850483990   -1.1161754510    0.7567956178
C       -1.0075441760   -0.9746170104   -0.4359365312
C       -1.9688567400   -0.0803336883    1.7229003558
C        0.8101984646    0.5707816346    0.2341363428
C        0.3965183940   -0.0232756537   -2.1818587781
N       -3.6384946948    0.3773837681    5.0708159016
N       -3.0433132499   -1.7224001305    3.2413280832
N       -0.0246743276   -0.1127598080   -0.7730684033
O       -1.6758430405    1.0935346364    1.5188929594
H       -4.4965483884   -1.1451854365    6.2278207143
H       -3.9835953446   -2.9506983220    4.6526218661
H       -2.7066733953    1.6177142118    3.6805654043
H       -2.1603439611   -2.0736934785    0.9192530603
H       -1.2270528187   -1.7517568769   -1.1622924866
H        1.8552428263    0.5948655842   -0.0892394325
H        0.7787149929    0.0449233977    1.1933056595
H        0.4694340276    1.6014760240    0.3740848896
H        0.0951770513    0.9427273497   -2.5995831996
H       -0.0600920800   -0.8157903179   -2.7831841054
H        1.4831672363   -0.1257089060   -2.2644926937
24   

C       -3.9595285367   -0.8557439386    5.3282157710
C       -3.5980836008   -1.9146278633    4.4728543572
C       -3.0232238874    0.6301663541    3.8795299672
C       -2.6488242827   -0.4201020690    2.9993622674
C       -1.5889240426   -1.1393006235    0.8193245903
C       -1.0172925371   -0.9482983975   -0.4253713325
C       -1.9398225760   -0.0829904797    1.7389328737
C        0.8515556488    0.5268268216    0.2534521896
C        0.3847544295    0.0027117180   -2.1741543104
N       -3.6765107720    0.4270237269    5.0441766194
N       -2.9463742500   -1.7139310302    3.3138911092
N        0.0032157822   -0.1335389960   -0.7582619303
O       -1.7101518463    1.0949820835    1.4814892657
H       -4.4847944049   -1.0870760843    6.2472802922
H       -3.8549250222   -2.9281010536    4.7578485263
H       -2.7818485031    1.6539067633    3.6176713316
H       -2.0062716769   -2.1166380769    1.0186075230
H       -1.2944118597   -1.6897160645   -1.1691024008
H        1.8915617753    0.5605555511   -0.0850002861
H        0.8350650424   -0.0219969217    1.2000422729
H        0.5106518897    1.5526848387    0.4246812300
H        0.0571558045    0.9751197722   -2.5558677274
H       -0.0745230493   -0.7813960830   -2.7843644791
H        1.4702991809   -0.0788665979   -2.2879100128
24   

C       -3.9707492709   -0.8505168464    5.3386730260
C       -3.5333258772   -1.9131848687    4.5244053218
C       -3.0766848124    0.6402233565    3.8683753955
C       -2.6277467523   -0.4138381333    3.0288339400
C       -1.4873712244   -1.1348547852    0.8876276936
C       -1.0306995169   -0.9030799689   -0.4034627538
C       -1.9192635627   -0.0760583985    1.7687748210
C        0.8846153686    0.5202623139    0.2307875610
C        0.3630212622   -0.0056718638   -2.1889457714
N       -3.7467255900    0.4366586354    5.0233761438
N       -2.8638284698   -1.7119254164    3.3757073707
N        0.0270637522   -0.1544699043   -0.7631780163
O       -1.7523062478    1.1034343188    1.4713300793
H       -4.5075374754   -1.0825466545    6.2508801253
H       -3.7455706602   -2.9301053624    4.8328685115
H       -2.8838001510    1.6671309881    3.5800210887
H       -1.8351514611   -2.1317389033    1.1205513909
H       -1.3834143842   -1.6092146333   -1.1494712330
H        1.9095606712    0.6010474713   -0.1438929208
H        0.9230857537   -0.0466674374    1.1660786675
H        0.5104071546    1.5283312922    0.4346556302
H        0.0772337908    0.9923830124   -2.5366967477
H       -0.1629730627   -0.7477466167   -2.7978380766
H        1.4373935228   -0.1454427871   -2.3442163412
24   

C       -4.0150751565   -0.8741987351    5.3464482733
C       -3.4928842449   -1.9224650041    4.5640278939
C       -3.1631288068    0.6426089090    3.8776609614
C       -2.6304486048   -0.3968440171    3.0699035303
C       -1.3889933995   -1.0804451659    0.9687662336
C       -1.0378564453   -0.8233023927   -0.3585044527
C       -1.9153736038   -0.0392283091    1.8196601056
C        0.9334220292    0.5337664640    0.1897104423
C        0.3413675225   -0.0337905725   -2.2078858386
N       -3.8547247791    0.4187829604    5.0160910231
N       -2.8010146788   -1.7007241043    3.4324927970
N        0.0577879911   -0.1661547357   -0.7693851303
O       -1.8121154997    1.1408134517    1.4955988176
H       -4.5663702199   -1.1226818641    6.2455771920
H       -3.6570876312   -2.9450931276    4.8827938664
H       -3.0214614925    1.6740033689    3.5759046417
H       -1.6556600009   -2.0951817953    1.2296396086
H       -1.4863739209   -1.4871918967   -1.0917264017
H        1.9240848020    0.6946202529   -0.2465467229
H        1.0675175983   -0.0597025074    1.0995397371
H        0.5085956005    1.5075727410    0.4525486298
H        0.1340384139    0.9898790251   -2.5363713692
H       -0.2791027021   -0.7167844181   -2.7966420036
H        1.3902556657   -0.2711228616   -2.4112716703
24   

C       -4.0763377791   -0.9510852021    5.3574148628
C       -3.4489326036   -1.9579056498    4.5981671388
C       -3.3017032705    0.6225864869    3.9054898680
C       -2.6648758859   -0.3748517286    3.1210654603
C       -1.3085930983   -0.9621513571    1.0583168571
C       -1.0323479562   -0.7064833314   -0.2967186934
C       -1.9521130029    0.0311661123    1.8850022836
C        1.0140374644    0.5438886518    0.1305318202
C        0.3156394363   -0.0753270112   -2.2292639229
N       -4.0076462026    0.3493715390    5.0241973813
N       -2.7414711270   -1.6864418917    3.4873308832
N        0.0921035585   -0.1630569018   -0.7768243905
O       -1.9406215306    1.2099629659    1.5408567334
H       -4.6349024278   -1.2390685327    6.2401268858
H       -3.5430178891   -2.9892637385    4.9172530826
H       -3.2330145777    1.6603246709    3.6000779504
H       -1.4573306031   -1.9930690925    1.3477895184
H       -1.6009195482   -1.3061215170   -1.0015149001
H        1.9519239306    0.7778488677   -0.3826798600
H        1.2550269103   -0.0802305115    0.9968880854
H        0.5629540395    1.4802385762    0.4746277455
H        0.2033244732    0.9612633928   -2.5633522194
H       -0.4037331743   -0.6925300553   -2.7767233751
H        1.3216759025   -0.4269481479   -2.4785263896
24   

C       -3.8459784331   -0.9261525905    5.3568843840
C       -2.9461014469   -1.7534114478    4.6571570443
C       -4.0507558286    0.4018349479    3.5183200753
C       -3.1457245005   -0.4164734787    2.7930423806
C       -1.8982447211   -0.8740691575    0.6325614903
C       -1.3021433039   -0.3520241987   -0.5107160412
C       -2.8067528553   -0.0504125972    1.3965498142
C        0.9575114131   -0.1697265181    0.4189717025
C        0.4000273239    0.7270863504   -1.8943545249
N       -4.4092159447    0.1589755229    4.7978703364
N       -2.5895746875   -1.5132691181    3.3831560724
N       -0.0270937566    0.0595036147   -0.6529545642
O       -3.2925903259    0.9538592974    0.8818834821
H       -4.0896852048   -1.1761042849    6.3826756761
H       -2.5236175260   -2.6134450057    5.1633835194
H       -4.4828941358    1.2702207196    3.0345503413
H       -1.3954601111   -1.6725314909    1.1599927489
H       -2.0036274200    0.0846095644   -1.2176849472
H        1.2272101787   -1.2296903145    0.4638337372
H        0.5511868067    0.1420825040    1.3865465387
H        1.8665224947    0.4119464641    0.2361585264
H        1.0313315481    1.5910906374   -1.6647529544
H       -0.4628970558    1.0854276386   -2.4646647814
H        0.9633393113    0.0270400975   -2.5199450649
24   

C       -3.9507362643   -0.9757950024    5.3483195755
C       -2.9333865508   -1.7095084869    4.7075944306
C       -4.2201628865    0.2848869091    3.4712419386
C       -3.1971732041   -0.4395384397    2.8051846933
C       -1.7983620649   -0.7910668878    0.7179543541
C       -1.2554028616   -0.2463725925   -0.4298881545
C       -2.8383411926   -0.0645586309    1.4161157633
C        1.0814936091   -0.2561708700    0.3249284805
C        0.4147058708    0.7616830616   -1.9076459726
N       -4.6063726093    0.0277481319    4.7398402633
N       -2.5487995380   -1.4550300624    3.4445576167
N        0.0357580774    0.0866061450   -0.6547459977
O       -3.4149840412    0.8648164071    0.8559471895
H       -4.2107713535   -1.2318313513    6.3685851815
H       -2.4408583061   -2.5067685569    5.2518267896
H       -4.7243085540    1.0898866636    2.9490461198
H       -1.2344566495   -1.5259629517    1.2749436839
H       -1.9758540352    0.2301661576   -1.0908915400
H        1.2637328662   -1.3355989356    0.3203759231
H        0.7821876997    0.0568939355    1.3303387502
H        2.0186768972    0.2540077951    0.0810984241
H        1.1363541632    1.5597994633   -1.7076692066
H       -0.4583406568    1.2133653464   -2.3894128839
H        0.8602205730    0.0404670847   -2.6005631989
24   

C       -4.0268565511   -1.0458435977    5.3525521892
C       -2.9124183799   -1.6762225417    4.7653990654
C       -4.3376556134    0.1690377885    3.4521003894
C       -3.2172616475   -0.4515874001    2.8398221492
C       -1.6902465153   -0.6684362830    0.8245126522
C       -1.2055934150   -0.1196954082   -0.3397044608
C       -2.8377482657   -0.0525357718    1.4631490945
C        1.1808695296   -0.3083576595    0.2266166755
C        0.4148163890    0.7712102619   -1.9435941287
N       -4.7526161047   -0.1179151627    4.7050349240
N       -2.4984564082   -1.3914911352    3.5181057167
N        0.0877957243    0.1209706189   -0.6632451466
O       -3.4875674563    0.8033237416    0.8667325680
H       -4.3057907773   -1.3208009842    6.3628506775
H       -2.3674322201   -2.4164777824    5.3393076611
H       -4.8968321849    0.9154606481    2.8997552986
H       -1.0792438504   -1.3488315822    1.4005046285
H       -1.9440014829    0.3756489101   -0.9662258463
H        1.2617421090   -1.4001195096    0.2255606836
H        1.0022304733    0.0416876360    1.2483470261
H        2.1358872606    0.1085084713   -0.1083691153
H        1.2183891986    1.5014298927   -1.8064275017
H       -0.4537140977    1.3019145960   -2.3465291383
H        0.7336524663    0.0199442943   -2.6734780234
24   

C       -4.1020044910   -1.1253109929    5.3346092547
C       -2.9029327078   -1.6437271752    4.8076848308
C       -4.4357222858    0.0490574008    3.4128249383
C       -3.2305479718   -0.4593803711    2.8608534189
C       -1.5919901629   -0.5338276721    0.9257402065
C       -1.1515387412   -0.0024913018   -0.2593363654
C       -2.8262820690   -0.0314188366    1.4999832321
C        1.2482033494   -0.3905732467    0.1312684745
C        0.4143605286    0.7300519568   -1.9916446568
N       -4.8823136114   -0.2747096712    4.6457079528
N       -2.4571797640   -1.3220110459    3.5804689378
N        0.1306334915    0.1237472106   -0.6797407314
O       -3.5314345227    0.7502101000    0.8655036023
H       -4.4028853554   -1.4247608039    6.3315572042
H       -2.3173658925   -2.3258367168    5.4128096856
H       -5.0379547752    0.7350029385    2.8282612353
H       -0.9497719597   -1.1671927307    1.5208380780
H       -1.8986696882    0.5063981380   -0.8641401624
H        1.2195353965   -1.4845210790    0.1631081723
H        1.1940222018    0.0045912987    1.1506998273
H        2.2076457418   -0.0841650172   -0.2972756804
H        1.2818720917    1.3940017127   -1.9253383291
H       -0.4357862382    1.3250850199   -2.3403073148
H        0.6175119212   -0.0530762528   -2.7293519958
24   

C       -4.2876187549   -1.1537676842    5.2364030918
C       -4.3654779336   -0.4344070891    4.0278013793
C       -2.1669722944   -1.7966579380    4.7140628068
C       -2.2217166792   -1.0788094800    3.4903036252
C       -1.0817599591   -0.3640804278    1.3403986046
C       -0.0069655727   -0.4473399251    0.4962869455
C       -1.0405879459   -1.0945406155    2.5940329725
C       -1.1367493572    0.4858142697   -1.4835109394
C        1.3048885675   -0.2126533237   -1.5555608445
N       -3.1902228669   -1.8425787172    5.5944128562
N       -3.3474456053   -0.3880136538    3.1504080229
N        0.0416192895   -0.0866183743   -0.8087986407
O       -0.0342095701   -1.7227768933    2.9156972137
H       -5.1450303225   -1.1496525852    5.8989234479
H       -5.2785093890    0.1012036803    3.7958245228
H       -1.2648795438   -2.3407844922    4.9691803059
H       -1.9844559709    0.1533915571    1.0490636696
H        0.8897441260   -0.9188503481    0.8916677618
H       -1.3798618850    1.4633962549   -1.0547383813
H       -1.9979425874   -0.1818837920   -1.3794331941
H       -0.9413694409    0.6194027768   -2.5521849350
H        1.1161367892   -0.6027119902   -2.5605942657
H        1.9899766681   -0.9028532896   -1.0528748544
H        1.7914916857    0.7648738918   -1.6354830882
24   

C       -4.2752386151   -1.1564971746    5.2388903021
C       -4.3921308330   -0.5143976222    3.9905786726
C       -2.1137191916   -1.6875923492    4.7603168040
C       -2.2075988202   -1.0471696301    3.4965840021
C       -1.1081744482   -0.3966032440    1.3068941756
C       -0.0100437265   -0.4225271490    0.4893267757
C       -1.0238906758   -1.0417877648    2.6034543446
C       -1.0194925071    0.8580499564   -1.3553288451
C        1.3436789047   -0.0572048865   -1.5146170470
N       -3.1373162189   -1.7495530490    5.6392781020
N       -3.3736428435   -0.4517054822    3.1147356181
N        0.1003436170    0.1199367658   -0.7447931056
O        0.0175922984   -1.5871848345    2.9624713828
H       -5.1355402394   -1.1711573917    5.8975029507
H       -5.3368407534   -0.0544711123    3.7254225007
H       -1.1799691678   -2.1565811940    5.0485642754
H       -2.0258349707    0.0857387475    1.0025765313
H        0.8708527740   -0.9387979756    0.8636132367
H       -1.3293235458    1.6845821151   -0.7078743398
H       -1.8686148387    0.1873975596   -1.5221929800
H       -0.7216730835    1.2788264046   -2.3209431223
H        1.1848554402   -0.7785427001   -2.3227132732
H        2.1525895362   -0.4258522706   -0.8756832619
H        1.6643230283    0.8978153863   -1.9425508800
