21

C     -0.64189    1.70780    0.80537
C     -1.71105    0.09648   -0.87203
C     -0.24742   -0.82966    1.10632
C     -0.54599    0.33711    0.17132
C      0.78818   -0.38040    0.09102
C      2.05241    0.27568    0.63085
C      1.08231   -1.30602   -1.08028
N     -1.84246    1.91339    1.45332
O     -2.87612    0.16947   -0.36883
O      0.24241    2.57335    0.76730
O     -1.38728   -0.13364   -2.05722
H     -0.06875   -0.61089    2.15826
H     -0.79649   -1.75160    0.92510
H      2.48974    0.95117   -0.11265
H      2.79310   -0.50227    0.86816
H      1.86717    0.86691    1.52862
H      1.47818   -0.73919   -1.93030
H      0.18851   -1.81787   -1.43484
H      1.83522   -2.04879   -0.77615
H     -2.06010    2.89543    1.58682
H     -2.58632    1.31708    1.05424
