15

C      5.70431   -2.06175    2.10849
C      3.72144   -3.98428    0.03464
C      3.96731   -2.54473    3.86524
C      2.71851   -1.86593    3.29545
N      5.04325   -2.65310    2.91644
S      6.63453   -1.40945    0.99965
S      2.67364   -2.49825    0.25618
S      1.73432   -2.84676    2.09233
H      4.24765   -3.83649   -0.91311
H      3.10358   -4.88167   -0.03007
H      4.44891   -4.08072    0.84023
H      3.71918   -3.54715    4.22360
H      4.32690   -1.96419    4.72529
H      2.02360   -1.68336    4.12307
H      2.96965   -0.90200    2.84612
