15

C      1.87653   -1.03155   -0.11649
C      2.93147   -1.63575    0.58006
C      0.80540   -0.46283    0.57822
C      2.91835   -1.67300    1.97373
C      0.78102   -0.49397    1.97555
C      1.84060   -1.10052    2.66529
O      0.54186   -0.46010    5.04300
P      1.73908   -1.10185    4.46193
Cl     1.97566   -3.08372    5.01145
Cl     3.52544   -0.27351    5.10110
H      1.89212   -1.00548   -1.20279
H      3.76249   -2.07686    0.03705
H     -0.01157    0.00514    0.03623
H      3.73589   -2.14126    2.51450
H     -0.04387   -0.05662    2.52966
