24

C      4.48459    2.38242   -5.54222
C      4.04095    1.43139   -4.66834
C      5.88471    0.32432   -5.31604
C      2.02808    0.16107   -4.11885
C      2.30195   -2.14573   -3.63093
C      6.58784   -1.75861   -2.98843
C      2.74647    1.47970   -3.88334
N      4.81805    0.30549   -4.52962
N      6.86415   -0.57600   -5.47844
O      1.25269   -0.05214   -5.03396
O      7.91482   -2.80291   -5.02141
O      5.39623   -2.72162   -5.14087
O      2.41487   -0.76551   -3.21450
S      5.98942    1.85068   -6.27701
S      6.66881   -2.04426   -4.78342
H      4.01463    3.31950   -5.81191
H      2.38717   -2.73723   -2.71740
H      3.13589   -2.36789   -4.30355
H      1.34104   -2.32571   -4.11787
H      6.49863   -2.74011   -2.51687
H      7.51416   -1.26781   -2.68329
H      5.71670   -1.13583   -2.78396
H      2.95495    1.59247   -2.81399
H      2.11790    2.30242   -4.22942
