25

C      5.09827    1.48204   -4.98558
C      4.61894    0.77386   -3.91861
C      6.09028   -0.71043   -4.66312
C      2.91274    2.51792   -3.08756
C      1.35496    4.00242   -2.10528
C      5.29515   -3.26171   -6.49459
C      3.56719    1.16252   -2.91621
N      5.18429   -0.48266   -3.75184
N      6.86889   -1.87766   -4.65805
O      3.08871    3.31069   -3.99280
O      7.52467   -1.97511   -7.11279
O      7.68568   -4.05346   -5.61994
O      2.05962    2.74244   -2.06123
S      6.33748    0.58289   -5.81405
S      6.99972   -2.84365   -6.06377
H      4.78094    2.45362   -5.33328
H      0.72485    4.01246   -1.21642
H      0.74708    4.06673   -3.01058
H      2.06264    4.83423   -2.08649
H      5.34052   -3.84099   -7.41844
H      4.86613   -3.85491   -5.68638
H      4.73900   -2.33677   -6.65172
H      2.76991    0.40991   -2.91270
H      3.99341    1.12073   -1.90771
H      6.70239   -2.44518   -3.82739
