25

C      4.68783    1.89010   -5.16843
C      3.92045    0.91268   -4.59685
C      5.50195   -0.38899   -5.43987
C      3.01343    0.98673   -2.29678
C      3.43743   -0.56171   -0.56568
C      5.02820   -3.48543   -4.15380
C      2.67790    1.13569   -3.77595
N      4.38369   -0.37693   -4.77338
N      6.19594   -1.57220   -5.70580
O      3.30240    1.91052   -1.56240
O      7.59928   -3.50821   -4.92551
O      6.84514   -1.82436   -3.16535
O      2.98865   -0.30732   -1.91542
S      6.09301    1.19233   -5.92360
S      6.58335   -2.61380   -4.36730
H      4.51541    2.95786   -5.18959
H      3.34636   -1.63885   -0.42873
H      2.81250   -0.02528    0.15161
H      4.47714   -0.24741   -0.45297
H      5.17952   -4.17443   -3.32058
H      4.26415   -2.74103   -3.92867
H      4.81329   -4.02308   -5.07693
H      2.29644    2.14549   -3.92955
H      1.91714    0.40382   -4.05856
H      7.01244   -1.50097   -6.31010
