27

C      0.54332   -0.77010   -0.25608
C      0.86741    1.73105   -0.38725
C     -0.91100   -0.94160    1.69895
C      1.01174    0.49723    0.48892
C     -0.82209   -1.26141    0.20415
C     -1.88871   -0.87888   -2.11368
C      0.39601    4.80287   -0.07655
C     -1.95819   -0.59548   -0.61157
C      1.56286    3.99795   -0.62838
O      1.24081   -1.30486   -1.09225
O      0.10787    1.82450   -1.33225
O      1.67872    2.71312    0.04911
S     -0.05807    0.68092    1.97765
H     -1.94293   -0.83463    2.04052
H     -0.41743   -1.70891    2.30088
H      2.05723    0.37417    0.77849
H     -0.85397   -2.34253    0.03583
H     -0.99405   -0.43819   -2.55902
H     -2.76033   -0.44967   -2.61829
H     -1.87610   -1.95555   -2.31701
H     -0.55349    4.30324   -0.28289
H      0.49722    4.94154    1.00385
H      0.37588    5.78976   -0.55140
H     -2.90228   -0.97660   -0.20306
H     -1.94564    0.48380   -0.43687
H      2.51905    4.48600   -0.43174
H      1.45824    3.81950   -1.70032
