31

C      1.93038   -0.99150    0.28425
C      0.80860    1.11712   -0.47048
C     -0.11081   -1.10721   -1.27821
C     -0.36674    1.24395    0.51116
C     -1.38935   -0.28122   -1.10527
C      1.17337   -0.33221   -0.87388
C      0.72439   -2.09092    3.53619
C     -3.48005    0.15254    1.35381
C      1.80060   -1.85892    2.49261
N     -1.42065    0.23665    0.26439
O      3.14037   -1.16201    0.26317
O      2.05652   -0.29026   -1.99145
O      1.14452   -1.30350    1.31961
O     -2.68655    0.91300    0.44796
H      0.57083    1.62105   -1.41121
H      1.68937    1.62372   -0.06241
H     -0.20425   -2.02150   -0.68795
H      0.00646   -1.39100   -2.32660
H     -0.02773    1.13203    1.54574
H     -0.80076    2.24535    0.40667
H     -1.46088    0.52174   -1.85631
H     -2.26170   -0.92689   -1.23709
H      0.22821   -1.15240    3.79936
H     -0.03234   -2.78883    3.16697
H      1.17411   -2.51212    4.44096
H     -4.41689    0.70622    1.46595
H     -2.98546    0.05417    2.32771
H     -3.69420   -0.84899    0.95812
H      2.30395   -2.78494    2.20169
H      2.56269   -1.15166    2.83120
H      2.95665   -0.43118   -1.64096
