35

C      2.02336   -1.61808   -0.07533
C      0.88728   -1.26487    0.66832
C      3.22781   -2.04292    1.97854
C      3.19705   -2.01254    0.56502
C      0.90595   -1.29753    2.06481
C      2.09950   -1.70624    2.73160
C     -3.76152    0.01508    2.84992
C      3.14814   -2.23482    4.81330
C      4.45419   -2.31084   -0.22613
C     -2.38195   -0.37227    3.39422
C      5.08236   -1.01662   -0.76154
C     -1.39158   -0.63111    2.27043
N      5.20747   -0.02238    0.38486
O      2.02819   -1.73653    4.08174
O     -0.12844   -0.98506    2.86866
H      1.96760   -1.60395   -1.16162
H     -0.01670   -0.97710    0.14522
H      4.12173   -2.39624    2.48407
H     -3.71421    0.92938    2.24789
H     -4.18359   -0.77852    2.22353
H     -4.46147    0.19564    3.67025
H      2.85002   -2.21066    5.86085
H      4.03019   -1.59662    4.67400
H      3.38360   -3.26524    4.52309
H      5.18353   -2.85101    0.38750
H      4.24485   -2.94411   -1.09379
H     -2.45461   -1.27333    4.01218
H     -1.98735    0.42335    4.03515
H      4.43481   -0.53706   -1.49674
H      6.07877   -1.15314   -1.18630
H     -1.73106   -1.45491    1.62935
H     -1.26065    0.26461    1.64871
H      5.40474    0.93245    0.06501
H      5.94502   -0.29629    1.04368
H      4.31336   -0.03395    0.91079
