61

C     -9.13957    4.13531   -4.84544
C     -7.80802    4.03394   -4.45406
C     -1.73287   -1.77469   -1.41557
C    -10.16075    4.33119   -3.90638
C     -1.87109   -0.39105   -1.52005
C     -8.49458    4.32741   -2.13909
C     -2.91064   -0.29958    0.67692
C     -7.48370    4.13108   -3.08683
C     -2.20455   -2.43579   -0.27459
C     -2.77090   -1.68709    0.76233
C     -9.83042    4.42693   -2.54594
C     -2.46635    0.34884   -0.48431
C     -4.25652    3.94070   -1.53220
C     -3.93848    3.76825   -2.84878
C     -6.10029    4.02636   -2.63177
C     -1.57176   -4.81476   -2.19644
C     -3.12542   -2.57939    1.93054
C     -3.13188   -3.99014    1.30197
C     -2.17098   -3.91687    0.08319
C     -2.68178    3.51488   -3.60019
C     -3.10632   -7.32050   -1.67597
C    -12.11476    4.72842   -1.89869
C     -3.37096    3.90294   -0.32525
C     -2.66456   -6.34663   -0.57791
C     -3.25514    2.49707    0.26121
C     -2.58120   -4.87997   -1.05173
N     -5.63648    4.09701   -1.41332
O     -0.38982   -5.03475   -2.05824
O     -5.11807    3.82836   -3.56628
O     -2.06201   -4.51497   -3.43602
O    -10.74146    4.61696   -1.54087
O     -2.55835    1.69847   -0.69826
H     -9.39793    4.06176   -5.89864
H     -7.02432    3.88182   -5.18823
H     -1.24727   -2.31030   -2.22479
H    -11.18841    4.40599   -4.24290
H     -1.52238    0.14115   -2.40042
H     -8.24842    4.40340   -1.08520
H     -3.35392    0.25344    1.49833
H     -2.35262   -2.50016    2.70663
H     -4.08002   -2.32079    2.40026
H     -2.85343   -4.77195    2.01297
H     -4.14438   -4.21448    0.94446
H     -1.15408   -4.19581    0.38919
H     -2.72233    2.54895   -4.11587
H     -2.49818    4.29149   -4.35111
H     -1.84069    3.48672   -2.90558
H     -4.08755   -7.04494   -2.08115
H     -3.18719   -8.33791   -1.28059
H     -2.39373   -7.34619   -2.50651
H    -12.65569    4.87489   -0.96279
H    -12.47717    3.81553   -2.38779
H    -12.28918    5.58896   -2.55665
H     -2.36756    4.26618   -0.56761
H     -3.78780    4.56422    0.44078
H     -1.68116   -6.63792   -0.19355
H     -3.36705   -6.40080    0.25908
H     -2.69710    2.51671    1.20706
H     -4.25324    2.08187    0.44618
H     -3.57522   -4.57242   -1.40789
H     -3.01362   -4.32994   -3.36987
