30   

C       -1.4854511130    0.9634549198    0.9076611886
C       -1.2341572100   -0.2557737909    1.5397181279
C       -0.5037076812    1.5386428605    0.0991527339
C        5.5528353881    1.2263105390   -1.2597796118
C       -0.0016993567   -0.8969106170    1.3688503563
C        0.7285119750    0.8985425264   -0.0723296941
C        5.1995652298    0.0113297028   -1.8384493244
C        4.8896720220    1.6546006689   -0.1147627175
C        1.0067420072   -0.3261700446    0.5726806518
C        3.4642495892   -0.3164043582   -0.1651246874
C        4.1827639411   -0.7788841854   -1.2957707745
C        3.8575024433    0.8967286200    0.4419747572
C        2.2913810884   -1.0575555883    0.3842140039
C        3.8259356001   -3.1611577744   -1.1471122059
C        3.5598014388   -3.1145718450    0.3600446009
N        2.3393153546   -2.3409438232    0.6754354291
N        3.9382352662   -2.0142868441   -1.8967869928
O        3.9824474775   -4.2220738207   -1.7310595148
F        3.2554261786    1.3460251067    1.5678912954
H       -2.4412452589    1.4580441117    1.0395414254
H       -1.9960916282   -0.7101713865    2.1628111979
H       -0.6985496739    2.4799508727   -0.4020546738
H        6.3487011600    1.8259595113   -1.6892900315
H        0.1592927897   -1.8455292236    1.8701553790
H        1.4601574778    1.3604437505   -0.7250884290
H        5.7387435445   -0.3302938268   -2.7145527925
H        5.1701033614    2.5883988338    0.3580426291
H        3.4378053866   -4.1412095876    0.7163483370
H        4.4288052488   -2.6890545562    0.8697716788
H        4.2578055788   -2.1997551165   -2.8387625745
30   

C       -1.4479594242    1.0163109564    0.9392859757
C       -1.1304381444   -0.1085351145    1.7044505847
C       -0.5603913254    1.4587832582   -0.0441824957
C        5.5529694719    1.2402766861   -1.1688063819
C        0.0729570879   -0.7897681393    1.4875012855
C        0.6425554745    0.7777996982   -0.2605695581
C        5.2415840613    0.0296117183   -1.7791362502
C        4.8295064227    1.6471574947   -0.0532947556
C        0.9777853201   -0.3570938044    0.5053286860
C        3.4370081711   -0.3438618499   -0.1901524682
C        4.2097046745   -0.7797000162   -1.2961187729
C        3.7816767478    0.8705273525    0.4450486048
C        2.2481215831   -1.1034158293    0.2910800637
C        3.8355670108   -3.1682451942   -1.2352338023
C        3.4986691612   -3.1685041209    0.2576011449
N        2.2729826497   -2.3937351601    0.5478885546
N        3.9980388870   -1.9997400697   -1.9402465993
O        4.0098039045   -4.2111084552   -1.8459922545
F        3.1218676350    1.3034400510    1.5447174702
H       -2.3811035790    1.5423204995    1.1068835438
H       -1.8174078932   -0.4568569186    2.4673153615
H       -0.8048896819    2.3290041862   -0.6426320339
H        6.3606991878    1.8548973518   -1.5525365035
H        0.2991945450   -1.6620168798    2.0918503841
H        1.3134024544    1.1322417584   -1.0353797820
H        5.8234831883   -0.2919028114   -2.6352817854
H        5.0738277493    2.5793749898    0.4421064726
H        3.3520281175   -4.2052844967    0.5729294187
H        4.3474149847   -2.7696604656    0.8202454304
H        4.3615299167   -2.1589708988   -2.8710575611
30   

C       -1.4080237272    1.0523424678    0.9474785675
C       -0.9993857025    0.0429978979    1.8235601353
C       -0.6373346871    1.3465809329   -0.1803444031
C        5.5647429623    1.2492410212   -1.0697700835
C        0.1766908086   -0.6726767159    1.5705439685
C        0.5382001865    0.6303842556   -0.4314305174
C        5.2886590026    0.0489639649   -1.7159584143
C        4.7894245093    1.6307207129    0.0191648167
C        0.9550072189   -0.3946449240    0.4381513116
C        3.4220056168   -0.3697718904   -0.2112912901
C        4.2425904625   -0.7763579832   -1.2943051191
C        3.7269026466    0.8380612671    0.4574815327
C        2.2192823203   -1.1462883211    0.2003763477
C        3.8577851417   -3.1673705286   -1.3252406446
C        3.4581652189   -3.2159936063    0.1506734623
N        2.2274580766   -2.4423664154    0.4212921091
N        4.0611373249   -1.9776538449   -1.9819820406
O        4.0499588781   -4.1901853943   -1.9638264476
F        3.0181549764    1.2502421678    1.5343580205
H       -2.3195910341    1.6057981271    1.1430466059
H       -1.5931754415   -0.1870689421    2.7008601725
H       -0.9498603689    2.1302099611   -0.8611181258
H        6.3834911905    1.8767110651   -1.4064230303
H        0.4846210638   -1.4526858715    2.2589349110
H        1.1292022905    0.8694760883   -1.3088928721
H        5.9080318208   -0.2505250903   -2.5535848280
H        5.0035653414    2.5560930359    0.5406453180
H        3.2922231041   -4.2619441371    0.4233037677
H        4.2859700661   -2.8441015142    0.7609272900
H        4.4643672823   -2.1090472457   -2.9007158146
30   

C       -1.3746563726    1.0757979101    0.9324024372
C       -0.8515948245    0.2232990372    1.9089067615
C       -0.7362051907    1.1874582174   -0.3057910740
C        5.5859742644    1.2530621145   -0.9538251138
C        0.3055413916   -0.5188820414    1.6451010390
C        0.4204488115    0.4441980599   -0.5661742216
C        5.3296181849    0.0716256608   -1.6408524770
C        4.7787835926    1.6039724405    0.1217472901
C        0.9461565219   -0.4278208822    0.4029578978
C        3.4219240389   -0.3918800853   -0.2007514707
C        4.2726846691   -0.7654864811   -1.2729924656
C        3.7050639658    0.7992540058    0.5078720087
C        2.2093964419   -1.1829946519    0.1494472314
C        3.8785581364   -3.1541936059   -1.4019780665
C        3.4354001891   -3.2565784901    0.0583425282
N        2.2028321379   -2.4848515754    0.3249404761
N        4.1090538314   -1.9421790143   -2.0066587701
O        4.0822814643   -4.1531065907   -2.0739071424
F        2.9680333007    1.1848755958    1.5751694249
H       -2.2711477151    1.6505518600    1.1360372665
H       -1.3408648634    0.1370194495    2.8723931307
H       -1.1355583452    1.8513789320   -1.0640420284
H        6.4129767013    1.8902818073   -1.2494451096
H        0.7086367571   -1.1750316580    2.4091247486
H        0.9148608592    0.5425939483   -1.5265241368
H        5.9721407988   -0.2029806483   -2.4695062175
H        4.9760183086    2.5153371496    0.6736383656
H        3.2547999407   -4.3110181179    0.2851673245
H        4.2477438823   -2.9151221943    0.7059777981
H        4.5385327177   -2.0421817867   -2.9174306209
30   

C       -1.3916813325    1.0869731526    0.8892929209
C       -0.7309620678    0.4670955754    1.9534265006
C       -0.8886723626    0.9585121719   -0.4079771907
C        5.6274697597    1.2245438444   -0.8277625135
C        0.4282221942   -0.2815938622    1.7183203077
C        0.2705442665    0.2090712964   -0.6375338794
C        5.3444609250    0.0817818928   -1.5668224440
C        4.8311098792    1.5415931996    0.2657084825
C        0.9367403781   -0.4283160278    0.4227237435
C        3.4308166150   -0.4093865093   -0.1413538925
C        4.2715061012   -0.7493687908   -1.2335851837
C        3.7417606393    0.7426636707    0.6189786320
C        2.2006859716   -1.1926485338    0.1667090963
C        3.8312822072   -3.1212408737   -1.4766373952
C        3.3800926699   -3.2848895681   -0.0245754247
N        2.1621517135   -2.5007883692    0.2705464479
N        4.0823477963   -1.8858042169   -2.0227753134
O        4.0180384170   -4.0901665768   -2.1957511122
F        3.0205480404    1.0968900119    1.7064088491
H       -2.2901896173    1.6662894120    1.0698173877
H       -1.1153232582    0.5659168461    2.9622002844
H       -1.3955359807    1.4397010077   -1.2367107681
H        6.4661273007    1.8579856946   -1.0974987488
H        0.9371404165   -0.7580770537    2.5491854213
H        0.6582287987    0.1178415565   -1.6463845997
H        5.9781035919   -0.1669320044   -2.4103417121
H        5.0489262030    2.4225979741    0.8576844695
H        3.1761377935   -4.3449161564    0.1505132519
H        4.1958519685   -2.9913680445    0.6419579803
H        4.5098113863   -1.9500369825   -2.9377133620
30   

C       -1.2749172949    0.7195762068    0.6763969329
C       -0.4807091196    0.4407226185    1.7910274906
C       -0.8366928751    0.3437831721   -0.5949560677
C        5.8629402021    1.3333158506   -0.7000654099
C        0.7486887373   -0.2099599020    1.6321441983
C        0.3933071861   -0.3055743106   -0.7464269206
C        5.5994204907    0.2441958175   -1.5210352930
C        5.0835580104    1.5337793045    0.4315781082
C        1.2052906993   -0.5911517019    0.3652192855
C        3.7296417080   -0.4215961943   -0.1028574088
C        4.5609083255   -0.6454846277   -1.2335426426
C        4.0275494129    0.6743622014    0.7422023077
C        2.5272318271   -1.2719643713    0.1447278193
C        4.2256312729   -3.0085352048   -1.6420390844
C        3.7892463498   -3.2941870562   -0.2044849953
N        2.5376970535   -2.5846372618    0.1340302458
N        4.3994507353   -1.7260521634   -2.1034185267
O        4.4562693816   -3.9142219252   -2.4277856352
F        3.3335546187    0.9184135864    1.8739179679
H       -2.2284632683    1.2210980298    0.7978634846
H       -0.8185074482    0.7235451196    2.7815121629
H       -1.4493084806    0.5528377030   -1.4646073649
H        6.6746662988    2.0138582432   -0.9352459326
H        1.3423307131   -0.4372392869    2.5104426735
H        0.7251298241   -0.5954739440   -1.7376562603
H        6.2221668419    0.0834198309   -2.3935176450
H        5.2893007482    2.3702921820    1.0888246792
H        3.6313799295   -4.3715891221   -0.1036263908
H        4.5920048897   -3.0105018253    0.4818096434
H        4.8163818918   -1.7047171112   -3.0251823642
30   

C       -1.3051584605    0.6953356236    0.5625785317
C       -0.4303046515    0.7247511509    1.6494529640
C       -0.9341085119    0.0198728916   -0.5996853066
C        5.9230812885    1.3024162102   -0.5798983257
C        0.8148485308    0.0883425282    1.5708807315
C        0.3112440336   -0.6123641549   -0.6717424698
C        5.5590159891    0.3103021126   -1.4807241303
C        5.2456539517    1.4014539686    0.6280981404
C        1.2153879045   -0.5823349093    0.4074991836
C        3.7654880521   -0.4308156642    0.0001048458
C        4.5119786483   -0.5713204516   -1.2010155282
C        4.1846263619    0.5459045059    0.9340760869
C        2.5418808964   -1.2651962186    0.2249849833
C        4.1328279531   -2.8918847529   -1.7479393433
C        3.7603280871   -3.2714695649   -0.3124212096
N        2.5287158834   -2.5739400696    0.1134460853
N        4.2694100715   -1.5797112080   -2.1361995544
O        4.3268452825   -3.7442850029   -2.6003908671
F        3.6198592776    0.6665389681    2.1514640574
H       -2.2706317476    1.1848164013    0.6244498947
H       -0.7210825367    1.2309875248    2.5629277746
H       -1.6100796869   -0.0179048604   -1.4464297604
H        6.7400603343    1.9787271078   -0.8090483933
H        1.4303372261    0.0886747560    2.4587714445
H        0.5872133001   -1.1362359583   -1.5809666663
H        6.1125179362    0.2151373307   -2.4077975960
H        5.5406975039    2.1511340601    1.3526466942
H        3.5958474434   -4.3519337981   -0.2748169679
H        4.5930182124   -3.0368080227    0.3566303493
H        4.6342115588   -1.4981005529   -3.0764862077
30   

C       -1.3625058675    0.6233488443    0.5240540026
C       -0.3881164315    0.9395233745    1.4703343291
C       -1.0663448322   -0.2913971926   -0.4843377440
C        5.9468425115    1.3164312237   -0.4267250246
C        0.8805870571    0.3491092431    1.4055235977
C        0.2015146610   -0.8777112614   -0.5442892926
C        5.5133838558    0.4476353967   -1.4217482082
C        5.3468348928    1.2665842450    0.8267346311
C        1.2103537855   -0.5631871582    0.3913634498
C        3.7753018618   -0.4187882330    0.0482782042
C        4.4619232250   -0.4423252089   -1.1911351700
C        4.2842838604    0.3958293943    1.0824567187
C        2.5378759208   -1.2458880739    0.2399356253
C        4.0633453725   -2.7107022098   -1.8922463296
C        3.7487717807   -3.1995629908   -0.4722491064
N        2.5262820702   -2.5458545794    0.0429084505
N        4.1712933177   -1.3707260319   -2.1925673724
O        4.2301328024   -3.4984033630   -2.8102283918
F        3.8123712080    0.3195823132    2.3447986808
H       -2.3445850836    1.0798896913    0.5757321716
H       -0.6164601760    1.6415551847    2.2642707892
H       -1.8176825155   -0.5514500511   -1.2213878822
H        6.7668222638    2.0011542746   -0.6169030096
H        1.5747761563    0.6201586815    2.1833172551
H        0.4101489059   -1.5906940083   -1.3353673015
H        6.0202614458    0.4488264446   -2.3798417409
H        5.7099844523    1.9023625680    1.6253819447
H        3.5939165625   -4.2815481531   -0.5068793390
H        4.6031103876   -3.0056803239    0.1825859515
H        4.4988644463   -1.2184283652   -3.1377134732
30   

C       -1.3953821916    0.5925486055    0.5638170276
C       -0.3302347012    1.1088898395    1.2999639320
C       -1.1811320307   -0.4974020059   -0.2763649615
C        5.9682367892    1.3169299035   -0.2931139615
C        0.9455428988    0.5403426082    1.1948234301
C        0.0938564389   -1.0624071480   -0.3772796389
C        5.5344097539    0.5144034037   -1.3435641247
C        5.3546231361    1.2007054429    0.9505750282
C        1.1951930337   -0.5529891977    0.3490428314
C        3.7675022691   -0.4052246380    0.0524995867
C        4.4685580719   -0.3724501167   -1.1760298852
C        4.2765556285    0.3322976659    1.1412324784
C        2.5225424563   -1.2307163947    0.1990942365
C        4.0686037979   -2.6046148409   -1.9747946415
C        3.7524368352   -3.1510461564   -0.5747068039
N        2.5242458912   -2.5254259692   -0.0369156634
N        4.1827798260   -1.2533652242   -2.2201445610
O        4.2368895210   -3.3552853385   -2.9230829191
F        3.7789205458    0.1807487182    2.3896756519
H       -2.3825225546    1.0336057719    0.6451091404
H       -0.4908707870    1.9559780177    1.9571988352
H       -2.0019153789   -0.9105631627   -0.8517016882
H        6.8004193726    1.9989138910   -0.4337483829
H        1.7216064570    0.9975585046    1.7868094694
H        0.2275035859   -1.9128695250   -1.0378735222
H        6.0538994514    0.5616250951   -2.2937178823
H        5.7191489629    1.7804831143    1.7901721098
H        3.6042144168   -4.2317064306   -0.6524484894
H        4.6038631748   -2.9790512284    0.0899807879
H        4.5168887127   -1.0619855082   -3.1558338970
30   

C       -1.4013453658    0.6020722054    0.6177940905
C       -0.2712513349    1.2484964735    1.1151491210
C       -1.2580960837   -0.6192083858   -0.0359439594
C        5.9829395108    1.3016233802   -0.1745755680
C        0.9979020472    0.6771238559    0.9595581623
C        0.0105155974   -1.1873387460   -0.1882341179
C        5.5796051441    0.5336725939   -1.2628603645
C        5.3173631778    1.1646534728    1.0401705329
C        1.1767213221   -0.5509647835    0.3009932529
C        3.7504551548   -0.3999427001    0.0392127777
C        4.4971498357   -0.3432103649   -1.1608123799
C        4.2208437684    0.3077777895    1.1644241660
C        2.5016625607   -1.2251632483    0.1332735185
C        4.1046174529   -2.5465428503   -2.0356908714
C        3.7521181454   -3.1282387532   -0.6588400594
N        2.5127355511   -2.5148098399   -0.1321426039
N        4.2388704693   -1.1905141193   -2.2388212482
O        4.2928090298   -3.2722685153   -2.9995537524
F        3.6488386932    0.1502409051    2.3812428677
H       -2.3835146555    1.0454687176    0.7374973676
H       -0.3756426296    2.2009424558    1.6223528939
H       -2.1295573740   -1.1324386191   -0.4265255094
H        6.8291174161    1.9749394434   -0.2643973783
H        1.8282614902    1.2454595135    1.3499616204
H        0.0807277814   -2.1413306414   -0.7002650024
H        6.1360173232    0.5992823614   -2.1907751335
H        5.6523783096    1.7211222360    1.9074260423
H        3.6040534460   -4.2060797714   -0.7690331791
H        4.5876420118   -2.9766134416    0.0305004970
H        4.6018508542   -0.9749373204   -3.1583567140
30   

C       -1.3883054424    0.6303823901    0.6684317169
C       -0.2218460666    1.3520087637    0.9164619825
C       -1.2969221616   -0.6830121786    0.2135466680
C        5.9871165602    1.2652443014   -0.0644509410
C        1.0321794345    0.7632588111    0.7118254896
C       -0.0433015106   -1.2687762125    0.0110961290
C        5.6288853388    0.5164340492   -1.1815426398
C        5.2559187569    1.1277192634    1.1116152804
C        1.1572832009   -0.5583686788    0.2527167738
C        3.7284524726   -0.4144806634    0.0166424526
C        4.5319507955   -0.3479805049   -1.1462783036
C        4.1434908226    0.2849393101    1.1693194045
C        2.4754256581   -1.2336682763    0.0526186938
C        4.1432381170   -2.5223299644   -2.0948382072
C        3.7323963981   -3.1320836548   -0.7477978030
N        2.4839598705   -2.5162824503   -0.2460072009
N        4.3106682981   -1.1650832275   -2.2551501256
O        4.3575590163   -3.2261360137   -3.0694398223
F        3.4859947700    0.1475790500    2.3448118515
H       -2.3589214731    1.0871253723    0.8261473631
H       -0.2865279697    2.3762980530    1.2656478827
H       -2.1972694457   -1.2541256263    0.0170999879
H        6.8452123144    1.9283057516   -0.1030106050
H        1.8928855639    1.3894688416    0.8988871625
H       -0.0149177839   -2.2950584329   -0.3395355013
H        6.2308090950    0.5885051133   -2.0801232066
H        5.5480806002    1.6759658551    1.9994091192
H        3.5745256147   -4.2046230310   -0.8910509713
H        4.5450278859   -3.0100409572   -0.0260181191
H        4.7143404840   -0.9317760502   -3.1531531841
30   

C       -1.3666753525    0.6558653740    0.7264530497
C       -0.1966050458    1.4144006417    0.7282209280
C       -1.2970177857   -0.7120774503    0.4692636986
C        5.9774099984    1.2272847153    0.0311079502
C        1.0397534285    0.8075293991    0.4757963760
C       -0.0606964254   -1.3159280422    0.2182138170
C        5.6694264117    0.4891371290   -1.1077298875
C        5.1817346477    1.0958373269    1.1648336562
C        1.1405478513   -0.5688355882    0.2159807932
C        3.7055330177   -0.4373717280   -0.0122069439
C        4.5638131154   -0.3647561571   -1.1360102434
C        4.0597434604    0.2642996516    1.1603426568
C        2.4475223083   -1.2448981690   -0.0352086912
C        4.1704812417   -2.5062124299   -2.1634567168
C        3.6947343196   -3.1441370828   -0.8530119879
N        2.4432280018   -2.5174965247   -0.3735303642
N        4.3811213379   -1.1509828070   -2.2739581424
O        4.4066295888   -3.1859332826   -3.1500172499
F        3.3293372667    0.1457692792    2.2938347187
H       -2.3240177478    1.1262211429    0.9209581304
H       -0.2455319948    2.4800116270    0.9214093970
H       -2.2007813648   -1.3108621210    0.4642303518
H        6.8428554409    1.8817966076    0.0410454264
H        1.9088944263    1.4523310922    0.4651586633
H       -0.0443419932   -2.3835746389    0.0261730855
H        6.3155492496    0.5642417268   -1.9748277466
H        5.4284341389    1.6419970348    2.0676129758
H        3.5193106225   -4.2080818113   -1.0347849449
H        4.4830550294   -3.0626968372   -0.0992986929
H        4.8270604566   -0.9016395965   -3.1473341697
30   

C       -1.3429733856    0.6747017254    0.7788481075
C       -0.2022160994    1.4436070493    0.5455447656
C       -1.2602952408   -0.7161635295    0.7161099947
C        5.9605386179    1.1976765980    0.1148713071
C        1.0184729035    0.8235883441    0.2530448900
C       -0.0392785685   -1.3331219239    0.4242659227
C        5.6995574247    0.4684063558   -1.0410556233
C        5.1088829474    1.0719594270    1.2073491490
C        1.1291328790   -0.5746078033    0.1911146548
C        3.6845206585   -0.4559019296   -0.0397823521
C        4.5897516347   -0.3764171472   -1.1268096441
C        3.9819067373    0.2497276553    1.1470059552
C        2.4217998663   -1.2480046602   -0.1205837588
C        4.1846861064   -2.4796915655   -2.2377682797
C        3.6486938506   -3.1475962716   -0.9678302963
N        2.3993825517   -2.5080170906   -0.5008584635
N        4.4420517108   -1.1299903914   -2.2919332890
O        4.4346838567   -3.1314642150   -3.2396264307
F        3.1942201392    0.1433522111    2.2425927894
H       -2.2887777180    1.1545948747    1.0040306388
H       -0.2627906061    2.5252036973    0.5864834228
H       -2.1421443617   -1.3215652682    0.8925908200
H        6.8297520618    1.8450103389    0.1687070775
H        1.8735544036    1.4601678750    0.0585659030
H       -0.0039635789   -2.4166995149    0.3822301602
H        6.3835512142    0.5471002493   -1.8782779993
H        5.3141757769    1.6162885148    2.1215334015
H        3.4527881119   -4.1996614694   -1.1927651244
H        4.4146449204   -3.1136050477   -0.1879262026
H        4.9254152821   -0.8643363045   -3.1402518376
30   

C       -1.3258165754    0.6897538557    0.8275348185
C       -0.2425812521    1.4405040666    0.3661362402
C       -1.1988066518   -0.6934563541    0.9663657544
C        5.9463823972    1.1518972093    0.2131736575
C        0.9659650511    0.8097103227    0.0480803237
C        0.0102767364   -1.3213085732    0.6483133013
C        5.7239187694    0.4295168027   -0.9547453225
C        5.0471695247    1.0369073290    1.2675379276
C        1.1181926578   -0.5779453543    0.1932471059
C        3.6627337429   -0.4808333631   -0.0367872791
C        4.6087209144   -0.4018710275   -1.0896227126
C        3.9141334933    0.2282124662    1.1594336465
C        2.3944551000   -1.2527502402   -0.1713677642
C        4.1865376640   -2.4686269536   -2.2722656327
C        3.5941536816   -3.1580646136   -1.0407703468
N        2.3504076473   -2.5011017133   -0.5840998403
N        4.4905326148   -1.1281888501   -2.2756302176
O        4.4459794883   -3.0965783237   -3.2868159257
F        3.0802264632    0.1367957543    2.2216390212
H       -2.2627920516    1.1773236707    1.0722455607
H       -0.3394752230    2.5139143872    0.2496324444
H       -2.0374934154   -1.2837444607    1.3176903077
H        6.8199854364    1.7889929190    0.3046721227
H        1.7851456054    1.4159625704   -0.3224229759
H        0.0888520670   -2.3980517071    0.7563154954
H        6.4404166771    0.5064775388   -1.7644824849
H        5.2187322572    1.5799354229    2.1894074621
H        3.3764572617   -4.1967875847   -1.3044124530
H        4.3385492814   -3.1703029729   -0.2396839918
H        5.0080324203   -0.8527234201   -3.1003830973
30   

C       -1.3046295373    0.6989622277    0.8457408480
C       -0.3092774909    1.4099375140    0.1702039176
C       -1.0972348479   -0.6433367932    1.1725795993
C        5.9614729743    1.1062706266    0.2981815797
C        0.8932033564    0.7807096556   -0.1727417035
C        0.1057565222   -1.2697528544    0.8289803519
C        5.7649604916    0.4110764063   -0.8903523650
C        5.0254038908    0.9884154822    1.3191264638
C        1.1242359914   -0.5607883036    0.1655193635
C        3.6625071069   -0.4870004501   -0.0558214265
C        4.6411736934   -0.3982328123   -1.0784195071
C        3.8834519756    0.2011580184    1.1593816487
C        2.3878584588   -1.2329274708   -0.2481526963
C        4.2005230221   -2.4127180789   -2.3492469743
C        3.5593104836   -3.1334623998   -1.1618110293
N        2.3227933755   -2.4643605389   -0.7038401390
N        4.5443197153   -1.0836085565   -2.2907590502
O        4.4674126929   -3.0066753313   -3.3821330772
F        3.0153288451    0.1091569154    2.1937223581
H       -2.2372930298    1.1847221967    1.1097311525
H       -0.4707019389    2.4490644855   -0.0930909969
H       -1.8696217587   -1.2029283900    1.6878388226
H        6.8417089459    1.7268128520    0.4305470695
H        1.6502875180    1.3434256469   -0.7081096476
H        0.2526319327   -2.3160344861    1.0754857648
H        6.5073304424    0.4943600368   -1.6757735192
H        5.1741376259    1.5130797955    2.2554661620
H        3.3210980633   -4.1544484672   -1.4728125111
H        4.2840077122   -3.1986721020   -0.3454080909
H        5.0913873972   -0.7917793041   -3.0904453177
30   

C       -1.3150855639    0.7057086004    0.8560878634
C       -0.4309247316    1.3345419135   -0.0254399733
C       -0.9981830246   -0.5512193499    1.3787040631
C        5.9757527726    1.0336770948    0.4057160498
C        0.7711076543    0.7097294566   -0.3780236384
C        0.2041457605   -1.1732897678    1.0246716166
C        5.7914916932    0.3727512269   -0.8038400400
C        5.0139898454    0.9117889043    1.4016371565
C        1.1110176950   -0.5398070123    0.1575497092
C        3.6531758908   -0.5034982204   -0.0379993061
C        4.6554683539   -0.4071094050   -1.0374671993
C        3.8597390990    0.1531789830    1.1975269410
C        2.3687059663   -1.2163693691   -0.2797109710
C        4.1913354368   -2.3670038566   -2.3868471738
C        3.5085545474   -3.1124863716   -1.2390987778
N        2.2813686110   -2.4288202271   -0.7781162814
N        4.5695785035   -1.0511058581   -2.2733205027
O        4.4619411805   -2.9298522184   -3.4360368151
F        2.9683935858    0.0574763171    2.2113565896
H       -2.2476165439    1.1875073673    1.1276851780
H       -0.6791125845    2.3045674214   -0.4409355257
H       -1.6858703767   -1.0485562244    2.0531799476
H        6.8652579916    1.6321445144    0.5730274783
H        1.4443030586    1.2003668556   -1.0726924418
H        0.4385394306   -2.1561921873    1.4191538975
H        6.5523243069    0.4611751581   -1.5707948634
H        5.1515778769    1.4115467586    2.3531599522
H        3.2499349246   -4.1147868212   -1.5918261849
H        4.2156931798   -3.2267625873   -0.4127819891
H        5.1405710366   -0.7461906378   -3.0511100990
30   

C       -1.3380788690    0.7475623437    0.8333281639
C       -0.5734150258    1.2320276301   -0.2323579403
C       -0.9009334626   -0.3694939545    1.5512540369
C        5.9911149521    0.9683626161    0.5318696260
C        0.6306379848    0.6048018914   -0.5737384607
C        0.3028300305   -0.9947137758    1.2075571475
C        5.8052667744    0.3605458492   -0.7046400594
C        5.0193899907    0.8227391821    1.5144670552
C        1.0910485077   -0.4983622295    0.1556522339
C        3.6456737061   -0.5101658929    0.0090855299
C        4.6580364540   -0.3892629036   -0.9783590043
C        3.8538608585    0.0933507920    1.2712683691
C        2.3503728990   -1.1873814446   -0.2767086218
C        4.1722133590   -2.2801291610   -2.4165384136
C        3.4607060728   -3.0606878686   -1.3106914558
N        2.2426265993   -2.3703680597   -0.8363097041
N        4.5718725236   -0.9774238181   -2.2418945951
O        4.4438308426   -2.8014168571   -3.4867289291
F        2.9551145509   -0.0262839602    2.2750708910
H       -2.2719638682    1.2312115463    1.0968725244
H       -0.9163317765    2.0903128235   -0.7988947278
H       -1.4968192241   -0.7565867168    2.3699320899
H        6.8889468385    1.5446275757    0.7297773370
H        1.2109296089    0.9777404318   -1.4107754895
H        0.6309942285   -1.8717424415    1.7547345459
H        6.5732244853    0.4678777120   -1.4620051069
H        5.1576416690    1.2816553524    2.4862345746
H        3.1853921616   -4.0408158233   -1.7100236136
H        4.1547958217   -3.2255434502   -0.4818794366
H        5.1561348456   -0.6493583646   -3.0001618298
30   

C       -1.3592829535    0.7318293763    0.7412173849
C       -0.7068326889    0.9999002769   -0.4659971866
C       -0.8052408882   -0.1813192860    1.6432712520
C        6.0146302530    0.8814941554    0.6285560775
C        0.5047877718    0.3655113329   -0.7641132626
C        0.4053328188   -0.8158813933    1.3427810519
C        5.8049789412    0.3500783791   -0.6381857719
C        5.0630965403    0.6724410542    1.6186493164
C        1.0873620597   -0.5235980986    0.1491803092
C        3.6572194063   -0.5665734835    0.0614889492
C        4.6532722429   -0.3838352756   -0.9346530271
C        3.8929822335   -0.0423782342    1.3542807709
C        2.3549684202   -1.2225114471   -0.2563019269
C        4.1617312496   -2.1933381398   -2.4691875525
C        3.4562561469   -3.0332225231   -1.4038336739
N        2.2406255986   -2.3635773698   -0.8955483262
N        4.5483752646   -0.8970919038   -2.2291689645
O        4.4305494366   -2.6553694777   -3.5669675559
F        3.0214645012   -0.2253694403    2.3700713847
H       -2.2983169638    1.2220989363    0.9722653202
H       -1.1425818736    1.6946758613   -1.1749743734
H       -1.3169160191   -0.4050049243    2.5724233776
H        6.9154447394    1.4468000485    0.8437502676
H        0.9968040255    0.5658097086   -1.7098798147
H        0.8150302088   -1.5431770039    2.0349209309
H        6.5579891429    0.5049077340   -1.4023101897
H        5.2211194705    1.0701159887    2.6141007482
H        3.1785339617   -3.9905465326   -1.8536074885
H        4.1523898457   -3.2406757530   -0.5863823747
H        5.1221312318   -0.5236825626   -2.9743607883
30   

C       -1.3743763997    0.7201723734    0.6212139029
C       -0.8269826410    0.7175985549   -0.6641962923
C       -0.7135128795    0.0563753386    1.6581136048
C        6.0545232916    0.7935952312    0.6739223268
C        0.3906604434    0.0718642845   -0.9058593123
C        0.5029523188   -0.5923719208    1.4155281906
C        5.7823703400    0.3795598158   -0.6233676988
C        5.1635813212    0.4708225335    1.6887195735
C        1.0926369648   -0.5527874913    0.1381022851
C        3.6785600564   -0.6269425460    0.0971031487
C        4.6244278155   -0.3417390175   -0.9250504245
C        3.9881732626   -0.2346658155    1.4209636294
C        2.3643464633   -1.2594825517   -0.2413071938
C        4.1225822796   -2.0491075527   -2.5602279908
C        3.4617461309   -2.9719589118   -1.5345079342
N        2.2481126466   -2.3499987515   -0.9647072743
N        4.4683885521   -0.7556986264   -2.2495925208
O        4.3757724664   -2.4333328044   -3.6912274743
F        3.1949647997   -0.5433443689    2.4662294298
H       -2.3176122947    1.2205344130    0.8096389994
H       -1.3480051421    1.2110324360   -1.4768034538
H       -1.1510086708    0.0305408635    2.6496682947
H        6.9594271490    1.3505789742    0.8936408629
H        0.7993204067    0.0621583908   -1.9109258916
H        0.9566969337   -1.1507946707    2.2236186661
H        6.4926867922    0.6136607531   -1.4079361028
H        5.3757233314    0.7686208852    2.7086993572
H        3.1883097500   -3.9033613506   -2.0380813136
H        4.1799666278   -3.2167836366   -0.7469992556
H        5.0059849807   -0.3170840796   -2.9861484370
30   

C       -1.3457853182    0.7960153063    0.5082835456
C       -0.9576218212    0.4088653072   -0.7749731915
C       -0.5347698696    0.4817606561    1.6001714994
C        6.0158716339    0.6980371449    0.7981056746
C        0.2400330362   -0.2886128289   -0.9646328797
C        0.6642505801   -0.2163897045    1.4124887419
C        5.6760273452    0.4816763364   -0.5326838306
C        5.2211504650    0.1509220201    1.7997045852
C        1.0719711900   -0.6146682061    0.1226275039
C        3.6612515128   -0.7072596182    0.1432063242
C        4.5313111469   -0.2423444257   -0.8736564601
C        4.0626622314   -0.5657490921    1.4884964906
C        2.3452140741   -1.3322541737   -0.2156694625
C        4.0592065626   -1.8165885640   -2.6328545470
C        3.4896706786   -2.8690403833   -1.6722028311
N        2.2593779179   -2.3676818074   -1.0221571945
N        4.3262715145   -0.5284264040   -2.2246202237
O        4.2973443301   -2.0874915190   -3.7994173683
F        3.3865032839   -1.1567934488    2.4964928894
H       -2.2742397630    1.3360046322    0.6565555756
H       -1.5839614268    0.6481036830   -1.6269074680
H       -0.8365187361    0.7767680854    2.5988140931
H        6.9096394163    1.2591375405    1.0505382267
H        0.5238739607   -0.5773472032   -1.9715477462
H        1.2383281862   -0.4437361139    2.2957689773
H        6.3271482371    0.8617084857   -1.3114517686
H        5.5031914447    0.2697186920    2.8390654536
H        3.2544781351   -3.7687606675   -2.2475799256
H        4.2452997096   -3.1369926226   -0.9282385827
H        4.8088428966    0.0044007988   -2.9366866287
30   

C       -1.3582671533    0.8061095765    0.4889537829
C       -1.1130424777    0.1681727307   -0.7270738736
C       -0.3953855353    0.7618994736    1.4977231664
C        6.0116310861    0.6151568318    0.9010905393
C        0.0869787650   -0.5221218164   -0.9290982367
C        0.8067805709    0.0732986251    1.2972220546
C        5.6853278960    0.4838856765   -0.4452297670
C        5.1986971608    0.0181851768    1.8602507542
C        1.0590044750   -0.6080423121    0.0866607032
C        3.6489236996   -0.7110058632    0.1371393470
C        4.5360644037   -0.2040334706   -0.8410715089
C        4.0347403014   -0.6617189550    1.4921732882
C        2.3335954269   -1.3137094197   -0.2598973565
C        4.0788828203   -1.6964650445   -2.6696934241
C        3.5100351825   -2.7916101478   -1.7552659016
N        2.2687957289   -2.3284577303   -1.0962580448
N        4.3453785769   -0.4267344564   -2.2054298818
O        4.3231320442   -1.9182708922   -3.8453689054
F        3.3257711691   -1.3032859429    2.4492237078
H       -2.2887049028    1.3401858292    0.6459949017
H       -1.8517313473    0.2089172369   -1.5195653738
H       -0.5766486995    1.2685067851    2.4389211908
H        6.9099261990    1.1473692107    1.1964279657
H        0.2499330251   -0.9957005893   -1.8917548346
H        1.5206067977    0.0984859542    2.1053139726
H        6.3515825767    0.8982346797   -1.1930990144
H        5.4705173726    0.0688518896    2.9078675206
H        3.2886321517   -3.6700808890   -2.3677299068
H        4.2616290988   -3.0826272349   -1.0158891989
H        4.8346394054    0.1363879025   -2.8890262210
30   

C       -1.3836904368    0.7697842365    0.5317980758
C       -1.2454936087   -0.0564426917   -0.5830939208
C       -0.3050246164    0.9429227171    1.3986940337
C        6.0134947434    0.5398612799    0.9952437110
C       -0.0368606442   -0.7195874896   -0.8227335962
C        0.9053266899    0.2819178277    1.1601776573
C        5.7267371758    0.4464559353   -0.3634659076
C        5.1503686988   -0.0470410908    1.9160705131
C        1.0542852004   -0.5929591113    0.0599327243
C        3.6412978568   -0.7031096428    0.1279889030
C        4.5717429979   -0.1993482223   -0.8108611991
C        3.9791772613   -0.6827704517    1.4966307144
C        2.3300522376   -1.2797451729   -0.3125517803
C        4.1329479692   -1.6317069507   -2.6897785099
C        3.5281954877   -2.7392154099   -1.8149818212
N        2.2782585516   -2.2775984728   -1.1711231950
N        4.4159187689   -0.3817348669   -2.1851773502
O        4.3999338475   -1.8282549251   -3.8650269399
F        3.1996975557   -1.2942476860    2.4193036409
H       -2.3206175848    1.2830833374    0.7170043103
H       -2.0748847684   -0.1831919876   -1.2696907052
H       -0.4017022772    1.5997313666    2.2557826656
H        6.9172613526    1.0383870459    1.3300813142
H        0.0303910382   -1.3401548392   -1.7101267917
H        1.7139492416    0.4878441245    1.8457474544
H        6.4280983153    0.8571428204   -1.0806480737
H        5.3855257879   -0.0197301815    2.9734251577
H        3.3098963468   -3.5997872866   -2.4533922596
H        4.2591538658   -3.0581078905   -1.0665070445
H        4.9336735202    0.1893190701   -2.8406281446
30   

C       -1.3959367597    0.7308923830    0.5957837252
C       -1.3379369746   -0.2479750048   -0.3956905107
C       -0.2357914820    1.0821004842    1.2850105162
C        6.0054972459    0.4600394973    1.0702666389
C       -0.1262386659   -0.8839998042   -0.6885068288
C        0.9769441796    0.4480007344    0.9929693315
C        5.7684874822    0.3927554007   -0.2994982008
C        5.0854195861   -0.1021571212    1.9499713799
C        1.0523946150   -0.5748946119    0.0188859514
C        3.6319643123   -0.6998571357    0.0949870440
C        4.6115398837   -0.2088964876   -0.8008863091
C        3.9111390387   -0.6928470643    1.4777067838
C        2.3251406760   -1.2411842249   -0.3933222778
C        4.1878532687   -1.5711531257   -2.7363977255
C        3.5281727363   -2.6843166680   -1.9122785216
N        2.2747767583   -2.2100995774   -1.2848708709
N        4.4983250732   -0.3492017328   -2.1841570514
O        4.4826532191   -1.7406902385   -3.9092061174
F        3.0601353446   -1.2593828301    2.3651800147
H       -2.3351183058    1.2235337004    0.8212599893
H       -2.2331121842   -0.5152921688   -0.9457387881
H       -0.2715533197    1.8564959798    2.0428691750
H        6.9114564592    0.9241377795    1.4461830507
H       -0.1286517057   -1.6295119421   -1.4765724017
H        1.8500123721    0.7906401251    1.5311099426
H        6.5092234682    0.7914664418   -0.9830856264
H        5.2753328738   -0.0871792814    3.0166624433
H        3.3037916386   -3.5189376533   -2.5822424114
H        4.2300726904   -3.0461131151   -1.1555821392
H        5.0534780750    0.2243283131   -2.8059793597
30   

C       -1.3921571403    0.6951812636    0.6659541290
C       -1.3800388867   -0.4103951178   -0.1848341365
C       -0.1886335869    1.1980917043    1.1601908581
C        5.9903131414    0.3835188719    1.1511302971
C       -0.1686602618   -1.0188420997   -0.5330618207
C        1.0232110292    0.5912576532    0.8125727703
C        5.8114164502    0.3296510255   -0.2278506299
C        5.0107863722   -0.1430160125    1.9869931595
C        1.0564389666   -0.5485410046   -0.0233314457
C        3.6261316705   -0.6973844874    0.0657491627
C        4.6576979780   -0.2288464524   -0.7841512054
C        3.8387602769   -0.6908231167    1.4612233036
C        2.3243245580   -1.1945799769   -0.4736934371
C        4.2491098585   -1.5203827120   -2.7753727292
C        3.5208103916   -2.6291583748   -2.0080195641
N        2.2680658577   -2.1301719343   -1.3995564651
N        4.5946626392   -0.3326037011   -2.1739694810
O        4.5751479833   -1.6660640206   -3.9430946769
F        2.9232358527   -1.2123934684    2.3109447148
H       -2.3312222692    1.1664053284    0.9336912464
H       -2.3112601527   -0.7984565383   -0.5817557861
H       -0.1914826040    2.0672514481    1.8081329490
H        6.8944338918    0.8142449866    1.5688762730
H       -0.2046646500   -1.8703430123   -1.2042854531
H        1.9330447989    1.0388734589    1.1922635408
H        6.5936629376    0.7086281314   -0.8754932429
H        5.1504501587   -0.1317700025    3.0614844248
H        3.2853989655   -3.4329415112   -2.7110942342
H        4.1854340143   -3.0419853856   -1.2438562712
H        5.1931401963    0.2355600331   -2.7594821400
