56

C     -0.51052    0.90087    1.40447
C     -0.70330   -0.30029    0.68990
C     -7.83800   -1.69475   -0.13666
C     -1.43604    1.32492    2.35912
C     -2.81233    2.25961    5.19043
C     -5.15897    2.39111    4.68481
C     -6.93180   -2.04619    0.87190
C     -1.83784   -1.08582    0.90810
C     -7.39520   -1.36559   -1.41647
C     -2.93770    3.30435    6.10343
C     -5.29772    3.43818    5.60304
C     -5.10850   -1.73551   -0.69741
C     -2.57998    0.54463    2.61550
C     -3.91527    1.78049    4.45115
C     -3.73587    0.69346    3.47185
C     -5.56344   -2.07291    0.58887
C     -2.76581   -0.65662    1.86537
C     -4.18514    3.90543    6.31274
C     -6.02012   -1.37780   -1.69456
C     -4.57248   -0.39311    3.21587
C     -5.93200   -0.80194    3.80386
C     -6.25172    7.74365    8.63134
C     -4.82495    7.95787    8.16536
C     -5.28615    6.57924    8.57381
C     -4.27091   -0.90430   -3.25351
C     -4.56346   -2.40883    1.67931
C     -5.48196    5.51971    7.52254
N     -3.96194   -1.21387    2.26738
O     -6.00567   -2.00362    4.18569
O     -6.82503    0.08276    3.79608
O     -5.66024   -1.02161   -2.97849
O     -4.21522    4.93897    7.23309
H      0.37019    1.50733    1.20301
H      0.03450   -0.61704   -0.04423
H     -8.90207   -1.66158    0.08497
H     -1.28246    2.26295    2.88514
H     -1.84412    1.78210    5.07072
H     -6.02697    2.00507    4.15943
H     -7.27298   -2.26121    1.88023
H     -1.98466   -2.00515    0.34688
H     -8.08746   -1.08146   -2.20463
H     -2.08229    3.65814    6.67366
H     -6.28182    3.87079    5.75065
H     -4.04188   -1.73324   -0.89086
H     -6.53889    8.12266    9.60812
H     -7.04143    7.78555    7.88548
H     -4.65534    8.13159    7.10638
H     -4.14217    8.48680    8.82411
H     -4.91497    6.20591    9.52530
H     -4.19658   -0.55240   -4.28485
H     -3.75808   -1.87169   -3.16572
H     -3.78690   -0.18155   -2.58499
H     -5.05149   -2.95014    2.49019
H     -3.75056   -3.02116    1.27901
H     -5.91430    5.96596    6.61442
H     -6.17788    4.74711    7.87945
