53

C     -1.14082    1.33281    1.43483
C     -1.14659    0.13559    0.67642
C     -3.68259    2.81346    6.61138
C     -2.03016    1.51625    2.48392
C     -3.35852    1.80691    5.69384
C     -2.92913   -4.17078    3.65391
C     -2.42706   -4.57975    1.32944
C     -2.04111   -0.89360    0.94500
C     -4.94226    3.40560    6.60789
C     -1.97804   -5.11790    4.03499
C     -1.47318   -5.53781    1.68951
C     -5.58413    1.99895    4.73699
C     -2.94051    0.48214    2.78386
C     -4.31239    1.38929    4.75585
C     -3.97552    0.34526    3.76398
C     -3.16057   -3.88826    2.29955
C     -2.94460   -0.70708    2.00553
C     -5.90398    2.99869    5.66761
C     -1.26545   -5.78430    3.04110
C     -4.56565   -0.90625    3.56438
C     -5.59337   -1.60079    4.37497
C    -10.28774    3.59608    6.23706
C    -10.72666    3.42509    4.79903
C     -9.37361    4.02899    5.11414
C     -4.19650   -2.85748    1.89609
C     -8.13948    3.22801    4.81481
N     -3.93971   -1.53459    2.47719
O     -5.99287   -2.73075    4.14464
O     -6.08971   -0.94080    5.44962
O     -7.10890    3.62937    5.73401
F     -0.33734   -6.70749    3.40615
H     -0.42683    2.11344    1.18707
H     -0.43156    0.01797   -0.13347
H     -2.94584    3.13163    7.34424
H     -2.03120    2.43393    3.06548
H     -2.38139    1.33410    5.71160
H     -3.50532   -3.65595    4.41601
H     -2.59825   -4.37476    0.27473
H     -2.02312   -1.80881    0.36358
H     -5.20689    4.18194    7.31959
H     -1.78971   -5.34853    5.07913
H     -0.89705   -6.07974    0.94589
H     -6.29421    1.69336    3.97758
H    -10.76301    4.36956    6.83235
H    -10.01075    2.70522    6.79370
H    -10.75372    2.41760    4.39249
H    -11.49706    4.08431    4.41108
H     -9.26651    5.09899    4.95504
H     -4.20323   -2.74055    0.80825
H     -5.18822   -3.17175    2.21070
H     -7.79805    3.40522    3.78618
H     -8.33992    2.15484    4.93357
H     -5.70406   -0.04587    5.53215
