24   

C       -1.2781325213   -1.2659339070    2.3558990665
C       -3.7704654387    0.3022871363    3.2429989706
C       -4.9904586694    0.8868078555    1.2460867111
C       -4.9035448526    0.6000850787    4.0100537358
C       -6.1162768192    1.1835530954    2.0224738745
C       -3.7937011450    0.4228059300    1.8364152359
C       -6.0854771372    1.0382900191    3.4100905558
C       -2.6854717471    0.1432730852    0.9320187222
C       -0.4559275834   -0.7175782193    0.1276010202
C       -1.5263417131   -0.5549163862    1.1402471041
C       -1.0324564247    0.8666828759   -3.0389173350
N       -1.0334142524   -1.8567799443    3.3295638666
N       -0.3204903732   -0.2232676896   -1.0864966970
O       -1.2756948432    0.6523592821   -1.6485699025
Cl      -7.4929706291    1.4058281210    4.3761371223
H       -2.8886311934    0.0053568871    3.7917384109
H       -5.0602633350    1.0115532427    0.1713311582
H       -4.8640939364    0.4952630624    5.0881816377
H       -7.0266494980    1.5292509927    1.5467673540
H       -2.8809220356    0.4903961858   -0.0686529418
H        0.3705342580   -1.3538500236    0.4251930700
H       -1.8512178135    1.4481163745   -3.4719858547
H       -0.9637281028   -0.0906582244   -3.5652389148
H       -0.0962264826    1.4162947288   -3.1748880277
24   

C       -1.4370494329   -1.3674274337    2.3135917211
C       -3.6799366355    0.5025454962    3.2273299339
C       -5.0665872739    0.7147059799    1.2621347233
C       -4.7930805852    0.7732108414    4.0322175063
C       -6.1729450965    0.9859040231    2.0754934145
C       -3.7981109251    0.4577746500    1.8240668906
C       -6.0477932132    1.0141372582    3.4665687133
C       -2.7027396075    0.1672812213    0.9032968785
C       -0.5344302932   -0.8381990151    0.1035015890
C       -1.6012822411   -0.6175782986    1.1064087115
C       -0.9013563598    0.9824947837   -2.9645163470
N       -1.2691793150   -1.9827291586    3.2881996288
N       -0.3377574075   -0.3005030270   -1.0828514565
O       -1.1973899011    0.6953252188   -1.5976864607
Cl      -7.4312337666    1.3494847969    4.4780148655
H       -2.7288251412    0.3545973793    3.7228717280
H       -5.2027363668    0.6943093532    0.1867023200
H       -4.6827223436    0.8004718978    5.1101123278
H       -7.1416147830    1.1739988838    1.6273369937
H       -2.9001452986    0.5056848033   -0.1014660551
H        0.2248735592   -1.5604324410    0.3830327787
H       -1.6611157297    1.6539548514   -3.3742040784
H       -0.8919516529    0.0601598349   -3.5540324789
H        0.0776618565    1.4647861423   -3.0420556572
24   

C       -1.5991347157   -1.4130347957    2.2555269014
C       -3.6268553014    0.6896168755    3.1728114529
C       -5.1322617909    0.5678907268    1.2889344638
C       -4.7156456378    0.9246405654    4.0206967288
C       -6.2155478488    0.8044206409    2.1435724085
C       -3.8174139897    0.5104993856    1.7909041406
C       -6.0178716206    0.9845269547    3.5157023600
C       -2.7281872320    0.2210183677    0.8545898188
C       -0.6435335723   -0.9400533745    0.0486615964
C       -1.6954988140   -0.6509689387    1.0481759948
C       -0.7882333682    1.0453811183   -2.9354861860
N       -1.4895804955   -2.0363190852    3.2332358581
N       -0.3925517890   -0.3866130698   -1.1196730573
O       -1.1579385906    0.6991859983   -1.6006929290
Cl      -7.3721614175    1.2766802446    4.5786807581
H       -2.6321801359    0.6612555085    3.6027767938
H       -5.3177565515    0.4207909593    0.2309040771
H       -4.5506787659    1.0609523048    5.0831813503
H       -7.2220871727    0.8447636448    1.7438791347
H       -2.9196164126    0.5711511829   -0.1482333302
H        0.0483630013   -1.7316673455    0.3148027870
H       -1.4819902984    1.7935386048   -3.3290292158
H       -0.8201342864    0.1616269348   -3.5806518348
H        0.2245822607    1.4591384540   -2.9480125103
24   

C       -1.7518900902   -1.4519595346    2.1933339681
C       -3.5937309390    0.8741194550    3.1105012006
C       -5.1726508497    0.4069260850    1.3454396928
C       -4.6544892396    1.0786817584    4.0006076824
C       -6.2292762711    0.6134742978    2.2405873507
C       -3.8387049712    0.5525955059    1.7658020581
C       -5.9805551148    0.9541267053    3.5741054976
C       -2.7520809865    0.2687134559    0.8132435211
C       -0.7571610656   -1.0257607399   -0.0111797940
C       -1.7896336607   -0.6794248021    0.9890873290
C       -0.6707237795    1.1059918338   -2.8953723703
N       -1.6921776816   -2.0864185527    3.1680858822
N       -0.4551406626   -0.4583209724   -1.1602568388
O       -1.1274395058    0.7024053589   -1.6043906625
Cl      -7.3010481560    1.2098790627    4.6877787178
H       -2.5748347815    0.9683265279    3.4697472579
H       -5.3909424891    0.1284958562    0.3206155933
H       -4.4496262738    1.3308631302    5.0345346658
H       -7.2535814914    0.5035583240    1.9041733261
H       -2.9304432457    0.6459110368   -0.1827619579
H       -0.1317638772   -1.8762349875    0.2372135823
H       -1.2939906459    1.9230890177   -3.2692488658
H       -0.7284129387    0.2687175914   -3.5981185046
H        0.3663354667    1.4496753404   -2.8352061429
24   

C       -1.9064543322   -1.5585772925    2.0808455433
C       -3.5779649133    1.0390691560    3.0225240448
C       -5.1808993591    0.2010525089    1.4263857924
C       -4.6077799323    1.2362320368    3.9500054307
C       -6.2077312986    0.3995250672    2.3573966535
C       -3.8562014732    0.5427831302    1.7410110205
C       -5.9319119217    0.9239247896    3.6246645503
C       -2.7725416628    0.2719534532    0.7684737499
C       -0.8528971511   -1.1059751534   -0.0954966613
C       -1.8775702890   -0.7419811384    0.9056471864
C       -0.5605137462    1.1794747978   -2.8450275101
N       -1.9046074929   -2.2349446687    3.0288238302
N       -0.4972881558   -0.5024190557   -1.2101592997
O       -1.0895768373    0.7193029296   -1.6015149419
Cl      -7.2150540031    1.1732661567    4.7825853750
H       -2.5558530695    1.2725823813    3.2994455790
H       -5.4141080296   -0.2211787971    0.4554372810
H       -4.3803653360    1.6287873664    4.9342088891
H       -7.2284537002    0.1405189928    2.1015272253
H       -2.9162741961    0.7251296974   -0.2013494838
H       -0.2861364593   -2.0050607693    0.1201218680
H       -1.1225780175    2.0538201359   -3.1848880380
H       -0.6364365672    0.3945627419   -3.6041590441
H        0.4907037017    1.4583238363   -2.7247651352
24   

C       -2.1254355498   -1.7787413241    1.9040758594
C       -3.6097717328    1.2638003258    2.9019942983
C       -5.1495685352   -0.0083291454    1.5500893830
C       -4.6310384844    1.5135369737    3.8265902315
C       -6.1683166767    0.2432858074    2.4769984967
C       -3.8589542731    0.5002980384    1.7545949253
C       -5.9190986501    1.0069414636    3.6225058628
C       -2.7809228899    0.2383431729    0.7674248840
C       -0.8697147248   -1.1465563798   -0.1158554945
C       -1.9584923745   -0.8398663736    0.8366322714
C       -0.4845340107    1.2011771978   -2.8020511458
N       -2.2379955767   -2.5588347117    2.7613364676
N       -0.4638322509   -0.5048651774   -1.1915559474
O       -1.0908869715    0.6869360955   -1.6165699350
Cl      -7.1914176108    1.3206555678    4.7767143561
H       -2.6165053373    1.6608555183    3.0790605006
H       -5.3598256680   -0.6059865400    0.6702101365
H       -4.4262995533    2.1025341060    4.7129397045
H       -7.1614643846   -0.1577129943    2.3118088141
H       -2.6925992501    0.9817208806   -0.0099485946
H       -0.3055668230   -2.0481228558    0.0962716596
H       -0.9863670566    2.1251763372   -3.1026192732
H       -0.5678608848    0.4728127219   -3.6145549709
H        0.5734454674    1.4155948757   -2.6221529455
24   

C       -2.3063128127   -1.9825936981    1.6969338734
C       -3.6717560607    1.4761755014    2.7343938536
C       -5.0763208709   -0.1945997034    1.7163771697
C       -4.6955009921    1.7836853097    3.6387565580
C       -6.0987421199    0.1147399492    2.6213241052
C       -3.8383306949    0.4617330580    1.7819738871
C       -5.9162890437    1.1028818485    3.5939844539
C       -2.7806753832    0.1955036753    0.7805720432
C       -0.8901396423   -1.1814815004   -0.1501973658
C       -2.0252426290   -0.9344989748    0.7637023620
C       -0.4536914101    1.2974081834   -2.7065790340
N       -2.5170806733   -2.8521919967    2.4422371020
N       -0.4522223444   -0.4806238296   -1.1750462161
O       -1.1127324129    0.6970021487   -1.5916068373
Cl      -7.1909646608    1.4861308518    4.7243299022
H       -2.7365068739    2.0225702123    2.7816064916
H       -5.2405969778   -0.9579875647    0.9639049289
H       -4.5464905796    2.5572026744    4.3830341009
H       -7.0433786832   -0.4140360821    2.5709425559
H       -2.4321760671    1.0721404325    0.2547345137
H       -0.3299633447   -2.0915039977    0.0344538261
H       -0.9050213184    2.2697444668   -2.9228687409
H       -0.5509420231    0.6571378647   -3.5885382515
H        0.6087553368    1.4428808431   -2.4870859831
24   

C       -2.4040601235   -2.0905856338    1.5690698812
C       -3.7329980892    1.6025721096    2.5981895019
C       -4.9901181546   -0.3179667533    1.8742243134
C       -4.7551948360    1.9314188082    3.4966941361
C       -6.0107875637    0.0125298206    2.7735570252
C       -3.8186970429    0.4536530014    1.7981605649
C       -5.9006007950    1.1364969138    3.5973309419
C       -2.7702458919    0.1739658063    0.8026811958
C       -0.9662605271   -1.2431528303   -0.2355169518
C       -2.0825399778   -0.9979280298    0.7024905639
C       -0.3866812603    1.3836336790   -2.6097751584
N       -2.6545764745   -2.9976029638    2.2551701748
N       -0.4946392461   -0.5007029918   -1.2152857612
O       -1.0914581497    0.7353606091   -1.5509486126
Cl      -7.1731995717    1.5466621362    4.7205338048
H       -2.8596607226    2.2416824591    2.5326979938
H       -5.1095469927   -1.1859581791    1.2351589404
H       -4.6640970694    2.8115981388    4.1223904346
H       -6.8989151783   -0.6057361679    2.8329388638
H       -2.3566162793    1.0568516984    0.3384448326
H       -0.4541783886   -2.1915740012   -0.1157118971
H       -0.7796693096    2.3943713747   -2.7507930529
H       -0.5100701400    0.8218864724   -3.5405840616
H        0.6798109625    1.4502097702   -2.3723447682
24   

C       -2.4674506514   -2.1954160041    1.4683327045
C       -3.8029001596    1.6722982807    2.4542647407
C       -4.9153170383   -0.4207628781    2.0429124787
C       -4.8094847363    2.0285668801    3.3595846793
C       -5.9198482221   -0.0618972285    2.9496683083
C       -3.8191535004    0.4288226513    1.8019796723
C       -5.8739384503    1.1625572168    3.6207861151
C       -2.7753754639    0.1255000407    0.8199558773
C       -1.0705512829   -1.3174801082   -0.3452194521
C       -2.1478895431   -1.0738024070    0.6391497175
C       -0.3382548514    1.4421319925   -2.5168283552
N       -2.7180200003   -3.1270496730    2.1207361635
N       -0.5806527556   -0.5442230947   -1.2919584377
O       -1.1077108133    0.7433205508   -1.5381562252
Cl      -7.1273944839    1.6073715065    4.7522886656
H       -2.9935140519    2.3694379472    2.2688555531
H       -5.0068949845   -1.3671526886    1.5225730238
H       -4.7687184129    2.9859251948    3.8658964854
H       -6.7475301881   -0.7374336950    3.1319732738
H       -2.3362517001    1.0043680121    0.3731552600
H       -0.6050008779   -2.2957187613   -0.2951831979
H       -0.6819266145    2.4779515897   -2.5867014465
H       -0.4523111938    0.9636085190   -3.4941419734
H        0.7209925233    1.4404093785   -2.2406449974
24   

C       -2.2733664945   -2.2025439425    1.9976955659
C       -3.9751266484    1.6758229618    2.9373678132
C       -4.7587528948   -0.4140081401    2.0437311949
C       -5.2721269450    1.9787936171    3.3673286365
C       -6.0545339160   -0.1074420329    2.4770082016
C       -3.6820258164    0.4639956177    2.2867020419
C       -6.3232989084    1.0877282003    3.1465555139
C       -2.3100903529    0.2317137599    1.8448447027
C       -0.2624556159   -1.0790282187    1.1797553994
C       -1.6589286615   -0.9563694792    1.6571434247
C        1.3756146628    2.0112715710    0.3903623944
N       -2.7484740695   -3.2341064238    2.2561533834
N        0.5913893809   -0.1690784246    0.7575977729
O        0.2365216705    1.1950065179    0.6634036827
Cl      -7.9409373493    1.4658744716    3.6846552232
H       -3.1855955842    2.3944256865    3.1264775189
H       -4.6279528381   -1.3376239005    1.4949521229
H       -5.4689823369    2.9142079903    3.8780468906
H       -6.8641901200   -0.8020090144    2.2851886795
H       -1.7247146023    1.1367213801    1.8119100557
H        0.1377036785   -2.0870049028    1.1664374829
H        1.0986009739    3.0670590142    0.4575097452
H        1.7503327510    1.8058975265   -0.6168544127
H        2.1712758980    1.8094514869    1.1146115439
24   

C       -2.2782472534   -2.2651927922    1.8152363543
C       -3.9961507296    1.7217360709    2.7601748316
C       -4.7500853089   -0.5027056508    2.2505015989
C       -5.2772663662    2.0542220533    3.2139076632
C       -6.0301121711   -0.1642024513    2.7075638366
C       -3.6928792103    0.4336197520    2.2785337927
C       -6.3060764257    1.1132685867    3.1958309716
C       -2.3293197772    0.1864521292    1.8271843570
C       -0.2975235417   -1.0806368665    1.0395928694
C       -1.6857161834   -0.9904576275    1.5528313242
C        1.4136247170    2.0354502114    0.5651793623
N       -2.7204050309   -3.3251764092    2.0102040669
N        0.5684310786   -0.1497928798    0.6924479091
O        0.2520342286    1.2256115100    0.7470290595
Cl      -7.9050728241    1.5279494594    3.7619990029
H       -3.2268161841    2.4849487353    2.7944498388
H       -4.6440549030   -1.5015434084    1.8547573099
H       -5.4786293596    3.0523360933    3.5851867069
H       -6.8237640278   -0.9017854157    2.6762843511
H       -1.7504789237    1.0933484331    1.7792780398
H        0.0892598931   -2.0874531712    0.9246239003
H        1.1607197906    3.0866405562    0.7295384974
H        1.7966595611    1.9175517237   -0.4528938157
H        2.1943833848    1.7459965126    1.2757316921
24   

C       -2.3531074836   -2.2647335826    1.4858522935
C       -4.0373094392    1.7617564716    2.5824471246
C       -4.7032566264   -0.5445049875    2.4588031237
C       -5.3148299921    2.1102323028    3.0331908224
C       -5.9805343112   -0.1874771900    2.9107331673
C       -3.6934809692    0.4284330712    2.2824798444
C       -6.2995221795    1.1386860006    3.2019287273
C       -2.3348400776    0.1771583629    1.8211768063
C       -0.3013077847   -1.0635512603    1.0022402726
C       -1.7116454066   -0.9874404719    1.4588991893
C        1.5224258055    2.0303929305    0.8201357605
N       -2.8188353308   -3.3327162593    1.4860267521
N        0.6189149232   -0.1357265301    0.8273657521
O        0.3667873569    1.2318323391    1.0732179059
Cl      -7.8947674578    1.5722319647    3.7645485503
H       -3.3050315886    2.5529699243    2.4669006082
H       -4.5754186293   -1.5965051101    2.2663380822
H       -5.5477909038    3.1451325663    3.2553622136
H       -6.7376020221   -0.9528107067    3.0376425507
H       -1.7596484671    1.0851745095    1.7755304100
H        0.0535903003   -2.0602180743    0.7627190756
H        1.2987468771    3.0801713003    1.0297283100
H        1.8242079415    1.9352481463   -0.2274416147
H        2.3499509124    1.7104341077    1.4608103114
24   

C       -2.4824315833   -2.1770123331    1.1737177471
C       -4.1145119271    1.7727755020    2.3875968703
C       -4.6148144859   -0.5605952122    2.6728124839
C       -5.3951953786    2.1051082214    2.8426738116
C       -5.8960279353   -0.2215621647    3.1261276475
C       -3.6926259620    0.4337010917    2.2776639051
C       -6.3001580567    1.1109807848    3.2127176117
C       -2.3392001839    0.1908555698    1.7946307267
C       -0.3269548568   -1.0677016698    0.9458630599
C       -1.7482016734   -0.9634153387    1.3553504108
C        1.5909216498    1.9578493852    1.1246258083
N       -3.0384637122   -3.1878693859    1.0122440104
N        0.6528321052   -0.1863932269    0.9572306074
O        0.4713230580    1.1292446866    1.4378703144
Cl      -7.8985450701    1.5254539864    3.7807561368
H       -3.4449635416    2.5788366302    2.1091855649
H       -4.3805184661   -1.6144634964    2.6784925941
H       -5.6934774638    3.1448636027    2.9102223170
H       -6.5851750280   -1.0040213434    3.4223098422
H       -1.7675646365    1.1008327820    1.7234544374
H       -0.0243049471   -2.0375573670    0.5660207589
H        1.3724280666    2.9936411239    1.3991613355
H        1.8072131990    1.9160569066    0.0523695209
H        2.4721227348    1.6219580705    1.6793717514
24   

C       -2.5851630640   -2.0890486485    1.0446095098
C       -4.2092353711    1.7544030965    2.2265764022
C       -4.5040965444   -0.5452241232    2.8624679702
C       -5.4922898559    2.0505570592    2.7008482796
C       -5.7877706160   -0.2447407856    3.3343405572
C       -3.6928330396    0.4471586397    2.2741271506
C       -6.2962752799    1.0529111295    3.2539990518
C       -2.3362554356    0.2226941760    1.7834328810
C       -0.3847234828   -1.0485564680    0.8207122751
C       -1.7901876614   -0.9211735942    1.2695007613
C        1.6517200992    1.8665403376    1.2812206967
N       -3.2022738870   -3.0590753692    0.8578699331
N        0.6266517226   -0.2076483434    0.8931184211
O        0.4974071390    1.0575501283    1.5080608502
Cl      -7.8975729101    1.4229352475    3.8441136625
H       -3.6148193595    2.5570986540    1.8048439701
H       -4.1562846930   -1.5617429773    2.9930656185
H       -5.8716250894    3.0640046523    2.6407237014
H       -6.3952589351   -1.0264625123    3.7755075632
H       -1.7675644845    1.1348667794    1.6972048585
H       -0.1291678897   -1.9936907061    0.3540923631
H        1.4715130837    2.8798859568    1.6507967068
H        1.8770969973    1.9170470910    0.2111776123
H        2.5134730195    1.4448293351    1.8071752113
24   

C       -2.6698374598   -1.9958177728    0.9641828628
C       -4.2958687949    1.7215020390    2.0808166726
C       -4.3911863389   -0.4900534415    3.0226822231
C       -5.5808264863    1.9845237260    2.5701835486
C       -5.6765062638   -0.2242304068    3.5098470754
C       -3.6882884040    0.4696779680    2.2700833705
C       -6.2858994500    1.0123745223    3.2836440202
C       -2.3200100562    0.2621683884    1.7899872250
C       -0.4412418716   -1.0100359500    0.6954830878
C       -1.8252607721   -0.8645447917    1.1978699391
C        1.7263651469    1.7660706446    1.3752793338
N       -3.3322246324   -2.9347074272    0.7742132927
N        0.5987059507   -0.2085597733    0.7974819586
O        0.5243350616    1.0080225446    1.5120141831
Cl      -7.8896797890    1.3411423194    3.8911886494
H       -3.7727176978    2.4994553902    1.5362182768
H       -3.9453210939   -1.4520755306    3.2474208381
H       -6.0387787129    2.9515319081    2.3977883456
H       -6.2063247729   -0.9827811504    4.0742405589
H       -1.7477577824    1.1739634758    1.7124391081
H       -0.2332493713   -1.9300185410    0.1601676880
H        1.5916778744    2.7560916006    1.8198394250
H        1.9821561941    1.8867326426    0.3177839224
H        2.5498680477    1.2570882312    1.8850997553
24   

C       -2.7297967911   -1.8867782519    0.8732233655
C       -4.3885225151    1.6604323544    1.9415809637
C       -4.2807531528   -0.4013307579    3.1789364435
C       -5.6734152381    1.8945707993    2.4461073153
C       -5.5657328836   -0.1653194688    3.6818463569
C       -3.6862883266    0.4921697844    2.2723346694
C       -6.2764934642    0.9813835115    3.3158176413
C       -2.3051512318    0.3077274377    1.7967008725
C       -0.4901256447   -0.9235331763    0.5594631916
C       -1.8518796346   -0.7833601709    1.1180459170
C        1.7860827554    1.6999696102    1.4585525239
N       -3.4216441350   -2.8015741449    0.6715640289
N        0.5703896797   -0.1542362583    0.6901616684
O        0.5421646799    1.0009168686    1.5035039260
Cl      -7.8801817577    1.2738440248    3.9418927737
H       -3.9396293158    2.3897999671    1.2767568291
H       -3.7454535140   -1.2906338467    3.4930593884
H       -6.2106493214    2.7926721491    2.1644972842
H       -6.0168816733   -0.8756368046    4.3648277949
H       -1.7306394794    1.2207950081    1.7483269201
H       -0.3215834777   -1.8069771729   -0.0465106056
H        1.6935884632    2.6532309818    1.9864267396
H        2.0738318964    1.8980112135    0.4211704216
H        2.5683810772    1.1035653003    1.9376437823
24   

C       -2.8007515036   -1.7605433249    0.7368123315
C       -4.4771094808    1.5474808920    1.8092121633
C       -4.1805235947   -0.2847690089    3.3438705214
C       -5.7661812014    1.7590964729    2.3131954658
C       -5.4695552577   -0.0712253431    3.8466369951
C       -3.6799458227    0.5031366708    2.2969097657
C       -6.2762086891    0.9490824505    3.3327784721
C       -2.2906528192    0.3347038069    1.8132430725
C       -0.5331916724   -0.8457500733    0.4518996942
C       -1.8815513458   -0.7065345451    1.0410199660
C        1.8450861498    1.6040868262    1.5528921014
N       -3.5273039595   -2.6331747408    0.4784790138
N        0.5530369249   -0.1231370554    0.6285443964
O        0.5696557253    0.9631382399    1.5321104476
Cl      -7.8850423011    1.2130136277    3.9583644255
H       -4.0986145077    2.1929966595    1.0246625200
H       -3.5673507378   -1.0755301467    3.7618141019
H       -6.3795910975    2.5581645147    1.9135694125
H       -5.8502375163   -0.7002745418    4.6427886220
H       -1.6935346519    1.2340959530    1.8462941282
H       -0.4017081546   -1.6836204318   -0.2239086535
H        1.7920102681    2.5130762646    2.1585646200
H        2.1512729215    1.8744250188    0.5373698724
H        2.5944102760    0.9335930499    1.9844236288
24   

C       -2.8983910975   -1.5265932793    0.4991227073
C       -4.5765784374    1.3523062736    1.6566587299
C       -4.0787118184   -0.1187921083    3.5019260073
C       -5.8830009913    1.5075973918    2.1355823055
C       -5.3860503487    0.0386792468    3.9777311869
C       -3.6613991638    0.5378197939    2.3353332071
C       -6.2994047339    0.8536988961    3.3002346854
C       -2.2727705683    0.3747913830    1.8349642537
C       -0.5455175940   -0.8084477015    0.4324796842
C       -1.9098598969   -0.6016636496    0.9640328724
C        1.9172203501    1.5270360774    1.5970662690
N       -3.6811728162   -2.2930061538    0.1041834041
N        0.5710459992   -0.1460656123    0.6519708229
O        0.6060066767    0.9684490879    1.5184883935
Cl      -7.9290791109    1.0498664776    3.8961268538
H       -4.2729829299    1.8633038074    0.7498517992
H       -3.3858110344   -0.7580646146    4.0374661230
H       -6.5840338626    2.1375933361    1.6006914873
H       -5.6999603540   -0.4761515216    4.8781975111
H       -1.5686881142    1.0980590137    2.2169087851
H       -0.4341521919   -1.6410667648   -0.2533973970
H        1.9124637565    2.3869560632    2.2726895219
H        2.2466320717    1.8568488462    0.6069361569
H        2.6223973243    0.7817973393    1.9778268869
24   

C       -2.9617243031   -1.2820609501    0.2518502991
C       -4.6671478893    1.1338421380    1.5434659140
C       -3.9880707729    0.0947509093    3.6117530476
C       -5.9770469875    1.2348934143    2.0267904051
C       -5.2996703249    0.1975076286    4.0909937075
C       -3.6519687322    0.5852748686    2.3401144060
C       -6.3043064475    0.7732337683    3.3060174365
C       -2.2745298067    0.4163310155    1.8226651801
C       -0.5624650108   -0.7619183160    0.4047593425
C       -1.9398718424   -0.4912049836    0.8676235329
C        1.9235936616    1.4811336047    1.6919008278
N       -3.7735514513   -1.9347661092   -0.2687797213
N        0.5676237682   -0.1470458893    0.6840991668
O        0.5932269395    0.9934841082    1.5177958259
Cl      -7.9385634119    0.9027621499    3.9075458563
H       -4.4371118589    1.4832550703    0.5430073925
H       -3.2279773929   -0.3690926136    4.2302273558
H       -6.7505359400    1.6688932440    1.4040288638
H       -5.5467608162   -0.1765791644    5.0776222068
H       -1.5030886344    0.8321809061    2.4539472132
H       -0.4555657669   -1.5887547820   -0.2887700120
H        1.9295533263    2.2803145156    2.4383403764
H        2.3044788407    1.8768112022    0.7455174603
H        2.5821480706    0.6757926883    2.0322973419
24   

C       -2.9913810887   -1.1586970229    0.0725225297
C       -4.7464152258    0.9702636282    1.4980091791
C       -3.9207629511    0.2964010866    3.6637401211
C       -6.0380596051    1.0758136769    2.0270537095
C       -5.2149283155    0.4044711843    4.1870412117
C       -3.6664225934    0.5959790239    2.3136018339
C       -6.2838756037    0.7979056805    3.3754528237
C       -2.3050202075    0.4131539902    1.7825601359
C       -0.5940808187   -0.6712500987    0.2888030561
C       -1.9741429113   -0.4198921491    0.7565050256
C        1.9152453162    1.3973874870    1.8036995522
N       -3.8007018336   -1.7625859520   -0.5076174195
N        0.5415176330   -0.0974003074    0.6275245905
O        0.5760623979    0.9736786380    1.5484880825
Cl      -7.8967573435    0.9304701904    4.0315197039
H       -4.5853401174    1.1829675520    0.4468706004
H       -3.1115264051   -0.0254907523    4.3094630659
H       -6.8607838293    1.3703148007    1.3859909462
H       -5.3981582472    0.1760277098    5.2304491308
H       -1.5242476521    0.7475863009    2.4493859789
H       -0.4890829354   -1.4429016697   -0.4659513257
H        1.9222982184    2.1334224107    2.6124661209
H        2.3414195845    1.8535320254    0.9050733686
H        2.5345267411    0.5441834888    2.0982082758
24   

C       -2.9770077975   -1.1003985740   -0.0854595893
C       -4.8122867036    0.7848952650    1.4792181669
C       -3.8572551228    0.4598170298    3.6730562081
C       -6.0806845938    0.9158677803    2.0567958205
C       -5.1291051506    0.5930521112    4.2427307848
C       -3.6781661000    0.5576892843    2.2793291669
C       -6.2513772041    0.8217254650    3.4411491433
C       -2.3295670035    0.3707284678    1.7380345428
C       -0.5976771463   -0.5712989036    0.1708038746
C       -1.9841849656   -0.3786066222    0.6501094653
C        1.8973581490    1.3232075291    1.9184097363
N       -3.7658206046   -1.6876142476   -0.7094421922
N        0.5316994311   -0.0182477682    0.5619063582
O        0.5583884266    0.9665885997    1.5746039560
Cl      -7.8364483041    0.9845968931    4.1555731077
H       -4.7214403680    0.8750057244    0.4027973634
H       -3.0072028132    0.2716766902    4.3191925700
H       -6.9439765812    1.0911395532    1.4253878643
H       -5.2526364766    0.5142255759    5.3165215796
H       -1.5479825453    0.6771300659    2.4163652377
H       -0.4794237465   -1.2764654464   -0.6446467746
H        1.8920654359    1.9806662521    2.7922734370
H        2.3714346146    1.8470596177    1.0829630787
H        2.4810269336    0.4278311173    2.1548716781
24   

C       -2.9449408415   -1.0331584151   -0.2517155340
C       -4.8735734898    0.5957926514    1.4801078513
C       -3.7998424452    0.6202071600    3.6427355037
C       -6.1162139459    0.7589141118    2.1041532260
C       -5.0468107519    0.7847390073    4.2568403573
C       -3.6901476515    0.5129796329    2.2400943754
C       -6.2157133093    0.8519723501    3.4947683094
C       -2.3529707718    0.3251781605    1.6844087405
C       -0.5895820938   -0.4549118892    0.0608407050
C       -1.9843552283   -0.3311422658    0.5425998709
C        1.8802079852    1.2422476418    2.0311865894
N       -3.7035759799   -1.6059804249   -0.9247571437
N        0.5306883944    0.0743584008    0.5082032694
O        0.5458479330    0.9566389216    1.6113771544
Cl      -7.7698861639    1.0537773291    4.2649680813
H       -4.8581509767    0.5605597769    0.3981764719
H       -2.9147756948    0.5652116580    4.2665487775
H       -7.0158803087    0.8176471249    1.5025467439
H       -5.1136484547    0.8583207784    5.3360366700
H       -1.5724625415    0.6215935281    2.3669353311
H       -0.4532317615   -1.0826774039   -0.8130138036
H        1.8602122261    1.8130706186    2.9637642637
H        2.3954345982    1.8304436975    1.2659094005
H        2.4338176218    0.3129316388    2.1991581985
24   

C       -2.9245093653   -0.9226931857   -0.4107200462
C       -4.9311168873    0.3851076483    1.5176712482
C       -3.7690450264    0.7738806212    3.5951830499
C       -6.1519238728    0.5749408573    2.1768507715
C       -4.9945814213    0.9637748311    4.2435003460
C       -3.7078099340    0.4632814722    2.2183410361
C       -6.1969250885    0.8611091738    3.5425146920
C       -2.3785682327    0.2853814995    1.6476461740
C       -0.5906079880   -0.3393187635   -0.0166853318
C       -1.9932225468   -0.2726569041    0.4582696633
C        1.8705498368    1.1283952951    2.1417821410
N       -3.6482213849   -1.4592600269   -1.1491902556
N        0.5255948674    0.1450490546    0.4893678990
O        0.5383804179    0.9072029388    1.6785427029
Cl      -7.7249406479    1.0949607882    4.3548306810
H       -4.9871869266    0.2043988205    0.4541072329
H       -2.8598849419    0.8604863781    4.1795255793
H       -7.0789631861    0.5049956019    1.6195273367
H       -5.0175193687    1.1920368329    5.3027218268
H       -1.5997073555    0.5790212708    2.3313462532
H       -0.4410412072   -0.8782097216   -0.9460208086
H        1.8453660501    1.6131671498    3.1217502870
H        2.4085625454    1.7732965082    1.4405435785
H        2.4045649361    0.1772255327    2.2331882232
24   

C       -2.9225421065   -0.6403592178   -0.5814978166
C       -4.9507884572    0.1259394269    1.6127475640
C       -3.7594659596    0.9528811709    3.5348599623
C       -6.1598532563    0.3241799783    2.2912327746
C       -4.9729374518    1.1472142820    4.2037543423
C       -3.7113908060    0.4357510970    2.2202635520
C       -6.1845005412    0.8346828532    3.5889719560
C       -2.3866524486    0.2816717306    1.6344289465
C       -0.5832636674   -0.2680833811   -0.0392200838
C       -1.9963171791   -0.1813317332    0.4059734288
C        1.9221692372    0.8717537932    2.2748418678
N       -3.6274672402   -1.0267292700   -1.4248257085
N        0.5473854648    0.0612088903    0.5535442148
O        0.5830994078    0.6177294221    1.8510142398
Cl      -7.6984785798    1.0773795075    4.4246158986
H       -5.0484381268   -0.2715584215    0.6155931560
H       -2.8449212912    1.2118558500    4.0565143668
H       -7.0952969098    0.0778150423    1.8020875892
H       -4.9784040868    1.5451012967    5.2118466148
H       -1.6128979608    0.5903870582    2.3151608625
H       -0.4367194185   -0.6737069278   -1.0345015233
H        1.9165990979    1.2860407732    3.2869436155
H        2.4007725656    1.5893419702    1.6014033651
H        2.5003808495   -0.0573942380    2.2763657901
