23   

C       -4.8391046647   -6.8656927724   -2.0528832282
C        1.4523705247   -4.6622669650    3.1425735146
C       -3.3355728355   -4.8946904544   -1.4716640763
C        0.9396713873   -5.3795802781    2.1109857515
C       -3.7758540723   -6.5279896447    0.1522466569
C       -4.0136397203   -6.1387859514   -1.1375473020
C       -2.5758945630   -4.3762083332   -0.4440670977
C        1.2072675589   -3.2419107918    3.2060498809
C       -0.0549350793   -3.3201201736    1.2844430973
C       -1.8558197225   -3.1092718631   -0.4969829350
C       -0.8855133087   -2.6259284124    0.3053439557
N       -5.5073678453   -7.4613648234   -2.7976063300
N        0.4843132693   -2.6029384371    2.2233644473
N        0.1720748751   -4.6922398837    1.1730354940
O        1.6174637465   -2.6065624147    4.1617087765
S       -2.7216613000   -5.4057431538    0.9963240677
H        2.0425375361   -5.1165905440    3.9256414474
H       -3.4330130044   -4.4212276141   -2.4433811269
H        1.1271586381   -6.4483512102    2.0366415880
H       -4.1908077882   -7.4210340110    0.6060166205
H       -2.1461547435   -2.4510072348   -1.3099218680
H       -0.7128891610   -1.5572787715    0.2637428897
H       -0.2090121890   -5.1442836928    0.3498066302
23   

C       -4.5067988973   -7.0203085968   -1.9979457549
C        1.4846904017   -4.7502925045    3.0921279026
C       -3.1738407547   -4.9317808196   -1.4118557403
C        0.8499548477   -5.4334756336    2.1062166602
C       -3.7859212132   -6.4262586359    0.2909124327
C       -3.8488423706   -6.1709271049   -1.0528219622
C       -2.6029852662   -4.2822133003   -0.3396613593
C        1.3418300507   -3.3162125240    3.1631609970
C       -0.0512454681   -3.3109527306    1.3322432552
C       -1.8925396744   -3.0039293597   -0.3854846690
C       -0.8861604128   -2.5637883956    0.3957690864
N       -5.0379687974   -7.7156126886   -2.7662729403
N        0.5955246990   -2.6310080597    2.2301272126
N        0.0667242677   -4.6970670735    1.2202600646
O        1.8667909166   -2.7077509525    4.0793852334
S       -2.9049076934   -5.1808403096    1.1621587335
H        2.0989351777   -5.2421679477    3.8328385940
H       -3.1349138472   -4.5593413130   -2.4306002095
H        0.9570525239   -6.5129230530    2.0264703923
H       -4.2313606506   -7.2921969860    0.7678998398
H       -2.1519852846   -2.3501760434   -1.2123679513
H       -0.6645820820   -1.5041402233    0.3559731909
H       -0.4063148938   -5.1244174058    0.4318108073
23   

C       -4.1984640178   -7.1309628661   -2.0418586805
C        1.3719372230   -4.9856251487    3.0871358969
C       -3.0406647212   -4.9613266818   -1.3832767003
C        0.6287369570   -5.6006597364    2.1325341906
C       -3.8754881052   -6.3792751007    0.2917158257
C       -3.7279892029   -6.2034631825   -1.0590012174
C       -2.6858893365   -4.2274822960   -0.2751960064
C        1.3398101911   -3.5467004996    3.1899739820
C       -0.1481930008   -3.4016009154    1.4404361950
C       -1.9832621180   -2.9375394695   -0.2452337877
C       -0.9595047789   -2.5737040771    0.5508525503
N       -4.5765132432   -7.8898229714   -2.8399848253
N        0.5917385154   -2.7899869088    2.3154575217
N       -0.1479920978   -4.7911199012    1.3069067558
O        1.9697015354   -2.9961558362    4.0762750841
S       -3.1848997388   -5.0528490489    1.2149570391
H        1.9935810289   -5.5357689221    3.7790803721
H       -2.8356854103   -4.6498333719   -2.4027282403
H        0.6495463706   -6.6832825671    2.0295878876
H       -4.3673422550   -7.2332404403    0.7442591355
H       -2.1980711911   -2.2510661784   -1.0582709585
H       -0.6844837923   -1.5258591411    0.5496428928
H       -0.6960852412   -5.1668405999    0.5406148835
23   

C       -3.8914388763   -7.2492598034   -2.0062803836
C        1.3051952573   -5.1120324578    3.0278747070
C       -2.8995899590   -5.0004519707   -1.3428390895
C        0.4593134985   -5.6834017961    2.1333510684
C       -3.9338109041   -6.3334040887    0.2910065612
C       -3.5949379251   -6.2420898327   -1.0340120650
C       -2.7462589441   -4.1799471092   -0.2514413885
C        1.3726041519   -3.6735343826    3.1177052493
C       -0.2093475482   -3.4426448350    1.4616024918
C       -2.0581094473   -2.8783394278   -0.1748922471
C       -1.0065030573   -2.5665569438    0.6048532534
N       -4.1276669692   -8.0728437144   -2.7946796109
N        0.6194453631   -2.8754016075    2.2855796001
N       -0.3172066123   -4.8303684501    1.3525432079
O        2.0990910745   -3.1592576713    3.9503153343
S       -3.4216639316   -4.9245159120    1.2094390401
H        1.9374213320   -5.6969483856    3.6805968306
H       -2.5415233376   -4.7539064182   -2.3376605407
H        0.4027944216   -6.7657164565    2.0410637199
H       -4.4648398377   -7.1726596068    0.7266890855
H       -2.2623979668   -2.1673647003   -0.9693757028
H       -0.6871752883   -1.5313298238    0.6109196701
H       -0.9350207111   -5.1749507846    0.6253360478
23   

C       -3.6172940619   -7.2984331113   -1.9544685032
C        1.2374348677   -5.1596951846    2.9939093685
C       -2.7765390183   -4.9948424775   -1.2708717584
C        0.2945872147   -5.6961738023    2.1777034868
C       -4.0343069479   -6.2634616153    0.2537518292
C       -3.4929019780   -6.2344879185   -1.0056986033
C       -2.8224693223   -4.1126633279   -0.2195892088
C        1.3944333362   -3.7265099703    3.0462659701
C       -0.2827769069   -3.4335290149    1.4967547312
C       -2.1545817800   -2.8016113928   -0.0838936948
C       -1.0762537401   -2.5252193828    0.6711194538
N       -3.7140421090   -8.1681054627   -2.7224976618
N        0.6291269291   -2.9009433033    2.2535224994
N       -0.4866507877   -4.8135530257    1.4349589484
O        2.2145130105   -3.2409731613    3.8061312412
S       -3.6951773160   -4.7957482641    1.1613511635
H        1.8830553352   -5.7686987091    3.6105010456
H       -2.2596574324   -4.7948868406   -2.2046340639
H        0.1687055700   -6.7747526656    2.1153598313
H       -4.6149771188   -7.0908223304    0.6469604689
H       -2.3964234712   -2.0498253047   -0.8287471855
H       -0.7293852124   -1.4988778869    0.6801836453
H       -1.1705513658   -5.1352098364    0.7580807721
23   

C       -3.5128500256   -7.2917880071   -1.9693452286
C        1.3021980093   -5.2622080159    2.7872001793
C       -2.6725533988   -5.0250371743   -1.1718906399
C        0.2783683493   -5.7610929709    2.0472315899
C       -4.4701514237   -6.0447752208   -0.0578217943
C       -3.5684758587   -6.1691658590   -1.0837883991
C       -2.8957445726   -4.0950196936   -0.1864710050
C        1.5164424904   -3.8362267393    2.8279981683
C       -0.2760407465   -3.4760355407    1.4294678901
C       -2.2448063262   -2.7825088333    0.0095313721
C       -1.1350841041   -2.5282283785    0.7258710696
N       -3.4629379423   -8.2100383819   -2.6833877010
N        0.7043670656   -2.9784455907    2.1217960195
N       -0.5227428789   -4.8488626930    1.3627633561
O        2.4215547173   -3.3845946942    3.5082797711
S       -4.2639302639   -4.5436329749    0.8364794439
H        1.9695766271   -5.8958271591    3.3537884175
H       -1.9149237456   -4.9181838772   -1.9428129460
H        0.1034100802   -6.8336385622    2.0023179835
H       -5.2274874093   -6.7842190779    0.1785492579
H       -2.8078298947   -1.9144927505   -0.3193951395
H       -0.8417012637   -1.4910887157    0.8354997022
H       -1.3063571917   -5.1394503057    0.7876648348
23   

C       -3.7944893300   -7.7124233272   -0.8015859228
C        1.1783635771   -5.0535209437    3.2058568424
C       -2.5894590470   -5.4736829018   -0.6759292652
C        0.0249361196   -5.5386013175    2.6774649003
C       -4.8281055161   -5.6152424408    0.0088456586
C       -3.7618494632   -6.3159230640   -0.4913151993
C       -2.7725535376   -4.1859538662   -0.2321593216
C        1.7095147850   -3.8043685158    2.7178757272
C       -0.0491641723   -3.5722838584    1.2505809802
C       -1.8844894846   -3.0202834267   -0.3997262297
C       -0.7333249351   -2.7612427496    0.2483604353
N       -3.8188791273   -8.8509449093   -1.0438700421
N        1.0540318713   -3.0913093579    1.7403573343
N       -0.5886935008   -4.7872433409    1.6764832826
O        2.7453223819   -3.3672962000    3.1891319806
S       -4.4443915165   -3.9196650118    0.2755953664
H        1.7193395654   -5.5686880501    3.9867954157
H       -1.6711469311   -5.8268462700   -1.1367585329
H       -0.3923372692   -6.4769896304    3.0357591630
H       -5.7981380224   -6.0519301131    0.2195097660
H       -2.3252483091   -2.1462735758   -0.8693662532
H       -0.2524662373   -1.8124949740    0.0419060633
H       -1.4728200465   -5.0591869440    1.2599188733
23   

C       -3.6178187498   -7.7416380809   -0.6898837256
C        1.1898099437   -5.0726202507    3.1886009519
C       -2.5249155558   -5.4493830146   -0.5191816932
C       -0.0164456835   -5.5066495052    2.7402150705
C       -4.8456253355   -5.6406837388   -0.2407261622
C       -3.6851641086   -6.3270064004   -0.4854383906
C       -2.8244022789   -4.1413877275   -0.2150606391
C        1.7444981573   -3.8522088574    2.6563272464
C       -0.0918413690   -3.5493245360    1.3007607069
C       -1.9631928950   -2.9534870915   -0.3040592833
C       -0.7985019569   -2.7169289226    0.3317428923
N       -3.5624367355   -8.8942178509   -0.8449024549
N        1.0563868018   -3.1113596971    1.7227215395
N       -0.6563899393   -4.7356887491    1.7711079320
O        2.8335720068   -3.4675206497    3.0460165384
S       -4.5687478370   -3.9157426781   -0.0379502602
H        1.7561513587   -5.6079107245    3.9373793424
H       -1.5293000915   -5.7945272175   -0.7848361571
H       -0.4538028158   -6.4208410189    3.1353685469
H       -5.8241430655   -6.1036759811   -0.1766088612
H       -2.4161933189   -2.0655991900   -0.7343886046
H       -0.3143556607   -1.7686179611    0.1309802645
H       -1.5836864565   -4.9606617927    1.4264499603
23   

C       -3.4675557926   -7.7612788839   -0.5528475162
C        1.1832583609   -5.0550531703    3.2015710523
C       -2.4823082770   -5.4226054995   -0.3641021240
C       -0.0677274225   -5.4402095161    2.8404314561
C       -4.8119873815   -5.6866961117   -0.4449352064
C       -3.6077569198   -6.3405291188   -0.4563758848
C       -2.8655498282   -4.1085318843   -0.2097524275
C        1.7523694281   -3.8650669225    2.6180275050
C       -0.1503603150   -3.5036695282    1.3724606675
C       -2.0469325253   -2.8938293911   -0.2077348503
C       -0.8758102927   -2.6647782064    0.4223335443
N       -3.3545837708   -8.9181720579   -0.6193115422
N        1.0356223642   -3.1045202260    1.7221457546
N       -0.7353999556   -4.6536630057    1.9032789863
O        2.8838324949   -3.5292819531    2.9226839158
S       -4.6223779688   -3.9429595821   -0.3160580763
H        1.7751771004   -5.6078813488    3.9171020212
H       -1.4493596456   -5.7497056426   -0.4474974402
H       -0.5174250528   -6.3294102312    3.2767756245
H       -5.7740097205   -6.1832495788   -0.5068771276
H       -2.5098412065   -2.0075101561   -0.6306866076
H       -0.3919374267   -1.7168256898    0.2193550790
H       -1.6928418108   -4.8406942432    1.6242959274
23   

C       -3.3687179503   -7.7431689320   -0.4379030999
C        1.1692465980   -5.0460055585    3.2526113881
C       -2.4412403317   -5.3836753447   -0.2239680427
C       -0.1187371825   -5.3686158443    2.9697015185
C       -4.7291134086   -5.6875579056   -0.6512251432
C       -3.5327792881   -6.3217004582   -0.4406479163
C       -2.8520739020   -4.0671543493   -0.2180395087
C        1.7631867021   -3.8917925024    2.6233878129
C       -0.1809328617   -3.4553700720    1.4696534593
C       -2.0786683971   -2.8324699897   -0.1094899704
C       -0.9083155720   -2.6098224394    0.5268110390
N       -3.2377853403   -8.9000209610   -0.4235660098
N        1.0370072315   -3.1061401248    1.7567530588
N       -0.7970658691   -4.5586155213    2.0608548578
O        2.9278118208   -3.6158977199    2.8539080262
S       -4.5757763466   -3.9368516179   -0.5889667370
H        1.7730062372   -5.6236900953    3.9379911331
H       -1.4090286341   -5.7087578495   -0.1321290710
H       -0.5876841472   -6.2288796216    3.4424023738
H       -5.6655660848   -6.2021345084   -0.8357780208
H       -2.5399123834   -1.9488113958   -0.5397673414
H       -0.4188996763   -1.6648795014    0.3233847405
H       -1.7751620694   -4.7029548776    1.8327758233
23   

C       -3.3534130000   -7.7575546484   -0.3075249313
C        1.1956469662   -4.9798689941    3.2526724430
C       -2.4615479542   -5.3848054074   -0.0935134659
C       -0.1153002442   -5.2738822218    3.0581327749
C       -4.6697119756   -5.7260116288   -0.8163939759
C       -3.5143275691   -6.3393534324   -0.4092188000
C       -2.8626177378   -4.0713657039   -0.2335140624
C        1.7754218951   -3.8494510952    2.5691995364
C       -0.2218285483   -3.3939441429    1.5194854475
C       -2.1511503952   -2.8123542944   -0.0390065839
C       -0.9804318030   -2.5647851851    0.5881849028
N       -3.2255925377   -8.9110065209   -0.2129063792
N        1.0159371131   -3.0625353573    1.7327003753
N       -0.8299395209   -4.4621652396    2.1789783449
O        2.9591090419   -3.6007107340    2.7192791384
S       -4.5250865547   -3.9740786527   -0.8286386107
H        1.8282682289   -5.5632899287    3.9064543301
H       -1.4580746508   -5.7121245276    0.1559679123
H       -0.5735256448   -6.1147097768    3.5743600470
H       -5.5717109769   -6.2561978757   -1.1009676341
H       -2.6232414099   -1.9421643745   -0.4847330844
H       -0.5090498607   -1.6137082754    0.3714354789
H       -1.8233838580   -4.5854883792    2.0146212684
23   

C       -4.2427725656   -7.2472215196    1.0079977508
C        1.3672487950   -4.8915786423    3.0686516809
C       -2.8716326808   -5.1600315869    0.5250979608
C        0.7272649929   -5.5661056660    2.0795748793
C       -4.6172645450   -5.7574911335   -0.9298196701
C       -3.9389591715   -6.0990623416    0.2098552917
C       -2.7604361569   -4.1385743421   -0.3980093149
C        1.3180610058   -3.4499434087    3.0872768798
C       -0.0240401604   -3.4206256414    1.2184046363
C       -1.8372076573   -3.0165727477   -0.5262728872
C       -0.7948012423   -2.6493256930    0.2501564303
N       -4.4809014695   -8.1872384415    1.6525966646
N        0.6372409617   -2.7526113014    2.1147456767
N        0.0282992823   -4.8118566605    1.1384380158
O        1.8630159168   -2.8432473857    3.9930201131
S       -3.9878320935   -4.2899654330   -1.6630582169
H        1.9187190424   -5.3957786467    3.8494930875
H       -2.3072386483   -5.2595784821    1.4429968166
H        0.7656995335   -6.6525822023    2.0406725299
H       -5.4493287324   -6.3224711431   -1.3348257474
H       -2.0968295883   -2.3027362031   -1.3020556402
H       -0.4911194689   -1.6115292448    0.1839374522
H       -0.4327777835   -5.2344529758    0.3401190370
23   

C       -4.3598147943   -7.1957629716    1.0196614579
C        1.2969905184   -5.0433428795    3.1399542056
C       -2.9887915372   -5.0920913774    0.6121712844
C        0.5732009803   -5.6673584984    2.1757768978
C       -4.4902920334   -5.8275440386   -1.0369681913
C       -3.9743892966   -6.0835062557    0.2061122747
C       -2.7571932226   -4.1329223614   -0.3532039301
C        1.3239119367   -3.6016040073    3.1817485428
C       -0.0935827152   -3.4711065778    1.3728376790
C       -1.8789630934   -2.9677805115   -0.3733213505
C       -0.8476421005   -2.6432061208    0.4367715884
N       -4.6640553225   -8.1072879708    1.6771579727
N        0.6350829187   -2.8537411780    2.2533355728
N       -0.1281144670   -4.8624901916    1.2797315477
O        1.9491530054   -3.0389411837    4.0637911798
S       -3.7996535796   -4.3816072113   -1.7599107605
H        1.8605832766   -5.5883651636    3.8838198384
H       -2.5543098576   -5.1011265338    1.6058867214
H        0.5507802357   -6.7535804036    2.1203818341
H       -5.2398798471   -6.4424347100   -1.5224666615
H       -2.1004538558   -2.2369431340   -1.1450668074
H       -0.5210694908   -1.6105251632    0.4111622343
H       -0.6537498817   -5.2484243251    0.5026135373
23   

C       -4.4694711073   -7.1252275539    1.0214691274
C        1.2629825470   -5.1027786437    3.1470223090
C       -3.0935323135   -5.0179580772    0.6481615753
C        0.4607677489   -5.6980324281    2.2277111556
C       -4.3533849682   -5.9000371977   -1.1249724158
C       -4.0000713697   -6.0600351024    0.1892887712
C       -2.7394096104   -4.1317516525   -0.3474070289
C        1.3502270211   -3.6633197367    3.1823733930
C       -0.1455242958   -3.4778135013    1.4418273577
C       -1.9239268504   -2.9207490960   -0.2930981808
C       -0.8934295161   -2.6200102662    0.5264911410
N       -4.8418856910   -7.9989790071    1.6949086024
N        0.6464212966   -2.8895022906    2.2870958266
N       -0.2540602764   -4.8666897965    1.3674140624
O        2.0479858767   -3.1253017410    4.0245600133
S       -3.5976684594   -4.4881118949   -1.8514265927
H        1.8457133428   -5.6692904699    3.8593983382
H       -2.7838251040   -4.9366742256    1.6859719762
H        0.3900212525   -6.7824458660    2.1781626350
H       -5.0221864266   -6.5651621547   -1.6598614044
H       -2.1243122676   -2.1833995737   -1.0643941848
H       -0.5517145510   -1.5919188959    0.5172276599
H       -0.8374195697   -5.2326510234    0.6222353230
23   

C       -4.6268010488   -7.0846064257    0.9511999220
C        1.2325170333   -5.1332298798    3.1791600179
C       -3.2334060344   -4.9750175438    0.6618855109
C        0.3429786452   -5.7081458715    2.3294833456
C       -4.2075490027   -5.9779229823   -1.2219445764
C       -4.0508648783   -6.0585129620    0.1369984365
C       -2.7324729784   -4.1487683126   -0.3200279454
C        1.3821628362   -3.6986306026    3.1811221533
C       -0.2074099892   -3.4789929915    1.5296249227
C       -1.9857242357   -2.8952032933   -0.1915814842
C       -0.9538577988   -2.6053614509    0.6283814100
N       -5.0858193357   -7.9265112217    1.6115640754
N        0.6549351203   -2.9106682347    2.3179944631
N       -0.3924748483   -4.8615576124    1.5017635193
O        2.1634999042   -3.1777193898    3.9582600101
S       -3.3668781887   -4.5942261812   -1.9088443534
H        1.8407292333   -5.7123855901    3.8593285779
H       -3.0732320067   -4.8226295651    1.7258640816
H        0.2229730145   -6.7890650080    2.3068174753
H       -4.7821015649   -6.6844570473   -1.8106624756
H       -2.1709462200   -2.1506515731   -0.9597433600
H       -0.6001251377   -1.5812655547    0.6212608393
H       -1.0341273202   -5.2151354790    0.7997909935
23   

C       -4.7687319757   -7.0960864926    0.8389299253
C        1.2038547772   -5.0687973085    3.1822841328
C       -3.4030798713   -4.9573501548    0.6419725328
C        0.2458454736   -5.6453529597    2.4113848910
C       -4.0199840712   -6.1113704043   -1.3042035259
C       -4.0918313276   -6.1015893265    0.0641427108
C       -2.7580089119   -4.1824417872   -0.2941928628
C        1.3833343492   -3.6384306149    3.1349423036
C       -0.3009325074   -3.4278431202    1.5791957484
C       -2.1036579184   -2.8780463272   -0.1179319999
C       -1.0712571609   -2.5638417472    0.6896178942
N       -5.3100394158   -7.9117783224    1.4691443087
N        0.6159116642   -2.8570370278    2.3015996566
N       -0.5244516508   -4.8049937368    1.6091922642
O        2.2329190197   -3.1162844462    3.8360089443
S       -3.1130205274   -4.7419887629   -1.9330429010
H        1.8458105009   -5.6434903500    3.8346397293
H       -3.4227707391   -4.7292699870    1.7043002733
H        0.1008979125   -6.7232556355    2.4284526772
H       -4.4674905140   -6.8745202100   -1.9313476600
H       -2.3012410543   -2.1364164861   -0.8858398617
H       -0.7300858266   -1.5356064004    0.6714021062
H       -1.2206295993   -5.1623074842    0.9634806145
23   

C       -4.9050608474   -7.0783731770    0.6828398384
C        1.2289438755   -5.0467831880    3.1561629492
C       -3.5629973988   -4.9164579333    0.6134062142
C        0.2019021148   -5.6078214423    2.4667189843
C       -3.7802920672   -6.1988266350   -1.3382021609
C       -4.1105563653   -6.1115173153   -0.0110607037
C       -2.7661642862   -4.1809535933   -0.2308747392
C        1.4466457334   -3.6236481487    3.0672784889
C       -0.3343226985   -3.3907120266    1.6272470211
C       -2.1811597213   -2.8446548457   -0.0123259082
C       -1.1349829466   -2.5214048686    0.7707805541
N       -5.5428323916   -7.8709238491    1.2490894086
N        0.6406953037   -2.8331009248    2.2804496130
N       -0.5958739018   -4.7599791213    1.7000476647
O        2.3669482358   -3.1171500758    3.6857581953
S       -2.7944127281   -4.8426869405   -1.8695047071
H        1.8986353574   -5.6287242048    3.7732324384
H       -3.7813113010   -4.6286865746    1.6380576595
H        0.0250224340   -6.6797640764    2.5188167437
H       -4.0873601583   -7.0097603673   -1.9894583704
H       -2.4148791177   -2.0916473890   -0.7587025645
H       -0.8012893551   -1.4907959428    0.7491691936
H       -1.3561583588   -5.1054821051    1.1240673869
23   

C       -4.9579776216   -7.1025831163    0.5278489841
C        1.3191736814   -5.0614443956    3.0457135046
C       -3.7145291590   -4.8816015735    0.5658232904
C        0.2323399492   -5.6041798717    2.4383460180
C       -3.3805911123   -6.3588422373   -1.2282917478
C       -4.0442652047   -6.1616526524   -0.0443078583
C       -2.7823596848   -4.1728936296   -0.1513889512
C        1.5632060690   -3.6447735235    2.9252753619
C       -0.3207096678   -3.3792179049    1.6295425158
C       -2.2549737479   -2.8167435636    0.1081130942
C       -1.1828331683   -2.4930368062    0.8531899286
N       -5.6941685809   -7.8731523481    0.9966526042
N        0.7067834756   -2.8376141272    2.2118063603
N       -0.5952299967   -4.7455830734    1.7169813124
O        2.5490249261   -3.1587059815    3.4524205971
S       -2.3340589038   -5.0064746318   -1.6425788307
H        2.0169282569   -5.6532994517    3.6208117367
H       -4.1670404111   -4.5250043752    1.4865931422
H        0.0307699464   -6.6698174592    2.5206286367
H       -3.4865809256   -7.2453699752   -1.8439537992
H       -2.6732368658   -2.0168601525   -0.4951143691
H       -0.8837495858   -1.4518337155    0.8671367112
H       -1.4269208852   -5.0708100261    1.2355781847
23   

C       -4.9797441910   -7.1300823178    0.4261643107
C        1.4999009769   -5.0051492598    2.9002958223
C       -3.8395716203   -4.8549817108    0.4941284008
C        0.3657916934   -5.5586577380    2.3999039768
C       -2.9588738954   -6.5466038265   -0.8765076820
C       -3.9505332148   -6.2252589550    0.0142947191
C       -2.7893796781   -4.1723635583   -0.0686024057
C        1.7358776959   -3.5931629432    2.7213644058
C       -0.2565975600   -3.3495864736    1.5941569110
C       -2.3132658330   -2.8046981986    0.2249111366
C       -1.2142037863   -2.4712279298    0.9249885105
N       -5.8123476546   -7.8700259151    0.7650061052
N        0.8110650125   -2.7957360622    2.0853429332
N       -0.5123580119   -4.7164368540    1.7212704453
O        2.7707367120   -3.1012502458    3.1370104698
S       -1.8575865164   -5.2058195653   -1.1635593452
H        2.2394148409   -5.5845440380    3.4344473961
H       -4.5188833989   -4.4234061820    1.2230589702
H        0.1641108616   -6.6189605092    2.5346188030
H       -2.8654995916   -7.5131244467   -1.3596596315
H       -3.0224724452   -1.9967363100    0.0742454049
H       -0.9920832337   -1.4153287642    1.0225418762
H       -1.4081496402   -5.0388011502    1.3705776440
23   

C       -5.8297814737   -6.1526047973    0.5447714932
C        1.0857722802   -4.9870154539    3.3249280228
C       -4.0805507456   -4.3326850754    0.2144114976
C       -0.1879946785   -5.3163268881    2.9914268948
C       -3.5210295470   -6.5680031473   -0.2395915075
C       -4.5143624226   -5.7223798739    0.1811933089
C       -2.7808332314   -4.1613058387   -0.1969907950
C        1.7223148314   -3.8710399399    2.6681926118
C       -0.1611591152   -3.4700974880    1.4071073715
C       -1.9946726664   -2.9152065596   -0.2496634384
C       -0.8463385153   -2.6578933702    0.4031810305
N       -6.8975667460   -6.5053303874    0.8465772983
N        1.0443666618   -3.1159581277    1.7370994149
N       -0.8091973667   -4.5517188659    2.0066465551
O        2.8805833175   -3.6010593851    2.9347035197
S       -2.0286868944   -5.7141448029   -0.6064966851
H        1.6470532012   -5.5313896583    4.0709193755
H       -4.7246086713   -3.5187246328    0.5327259048
H       -0.6902165107   -6.1460781843    3.4837706544
H       -3.6393197220   -7.6409416558   -0.3443351647
H       -2.4850438264   -2.0425068638   -0.6696087850
H       -0.3462138679   -1.7251270456    0.1718272958
H       -1.7761543325   -4.6987909903    1.7371548519
23   

C       -5.9052669644   -6.1622425656    0.2275091262
C        1.2267722746   -4.8919637280    3.3038863364
C       -4.1349359169   -4.3387818612    0.0778744917
C       -0.0798662338   -5.1896538800    3.0895053596
C       -3.5017360726   -6.5861084624   -0.1704306652
C       -4.5516142668   -5.7337834442    0.0495766768
C       -2.7846445017   -4.1673659525   -0.1217583624
C        1.8383701298   -3.8178258135    2.5593775338
C       -0.1274363364   -3.4057840536    1.4360243605
C       -2.0392274859   -2.9018557203   -0.1500222404
C       -0.8660428283   -2.6210437912    0.4493075904
N       -7.0052394606   -6.5131581784    0.3782226061
N        1.1081418299   -3.0732916294    1.6596907383
N       -0.7581487595   -4.4378148460    2.1329504476
O        3.0232525411   -3.5798049168    2.7168342558
S       -1.9760301593   -5.7315761602   -0.3457325572
H        1.8327832482   -5.4316635972    4.0175817137
H       -4.8288481190   -3.5194185923    0.2374246513
H       -0.5632536231   -5.9865837406    3.6501689016
H       -3.5966878871   -7.6643209946   -0.2368802027
H       -2.5598372366   -2.0434858563   -0.5630419627
H       -0.3840800797   -1.6905898437    0.1743803549
H       -1.7467027492   -4.5653902747    1.9451742268
23   

C       -5.9507301968   -6.2051066652   -0.0947952915
C        1.3415895856   -4.6499566340    3.2747270298
C       -4.2153092511   -4.3427267752   -0.0492620077
C        0.0195873683   -4.9458894617    3.1948210676
C       -3.5073411627   -6.5800681847   -0.0696225950
C       -4.5948929128   -5.7482359736   -0.0704866966
C       -2.8534702361   -4.1378474805   -0.0185599096
C        1.8840373121   -3.6065304743    2.4386371917
C       -0.1736694232   -3.2311397890    1.4805974305
C       -2.1759453275   -2.8410428053   -0.0274044152
C       -0.9928834490   -2.4976805937    0.5197457641
N       -7.0534452802   -6.5789192008   -0.1089576115
N        1.0752894619   -2.8902851431    1.5842703502
N       -0.7423042787   -4.2260581131    2.2771952101
O        3.0804920038   -3.3767537905    2.4698557673
S       -1.9924346143   -5.6910751856   -0.0375549658
H        2.0103937161   -5.1693096251    3.9461910041
H       -4.9440361704   -3.5384685928   -0.0630627638
H       -0.4115400402   -5.7186379971    3.8272950629
H       -3.5683309018   -7.6624586585   -0.0918241262
H       -2.7370956645   -2.0194246951   -0.4615627911
H       -0.5592063834   -1.5592040935    0.1961400109
H       -1.7435983232   -4.3559805289    2.1845930831
23   

C       -5.9545622988   -6.2161690910   -0.4635603011
C        1.4118098723   -4.6266258648    3.3139968823
C       -4.2299689834   -4.3649982741   -0.1762789131
C        0.0779177175   -4.8739050782    3.3465878018
C       -3.5647357377   -6.6038962375    0.0315320617
C       -4.6203765922   -5.7670938244   -0.2068498677
C       -2.8970837661   -4.1595119234    0.1108217185
C        1.9238368742   -3.6318348606    2.4030634463
C       -0.1859306558   -3.2170629154    1.5861057636
C       -2.2385632864   -2.8584407586    0.1328959242
C       -1.0451988291   -2.5009424778    0.6484871620
N       -7.0405809702   -6.5836695533   -0.6673318101
N        1.0766326255   -2.9129794090    1.5892936969
N       -0.7271096700   -4.1576151249    2.4633198636
O        3.1269729298   -3.4529054512    2.3280800131
S       -2.0719940649   -5.7209110879    0.3053954752
H        2.1124038278   -5.1502051542    3.9487662754
H       -4.9319963743   -3.5608085728   -0.3720321057
H       -0.3292351218   -5.6082227841    4.0379184327
H       -3.6353041853   -7.6857513879    0.0463100523
H       -2.7940251754   -2.0538011122   -0.3387790935
H       -0.6225050835   -1.5709232421    0.2880933788
H       -1.7361744921   -4.2523306023    2.4525093082
23   

C       -5.0699201573   -6.6998608569   -1.9167380958
C        1.5669363365   -4.6537164595    3.2077651427
C       -3.3874579789   -4.8600859352   -1.3969714360
C        1.1431299329   -5.3857515392    2.1466783355
C       -3.6524050387   -6.6381003701    0.1052293872
C       -4.0702500423   -6.1063627980   -1.0824417879
C       -2.4381355974   -4.4809708586   -0.4702372340
C        1.2435848139   -3.2492604454    3.2709204255
C        0.0713596335   -3.3759487922    1.2954373450
C       -1.7053181007   -3.2237986619   -0.5244066598
C       -0.7606210701   -2.7164126152    0.2939963317
N       -5.8808949597   -7.1871038552   -2.5957027810
N        0.5314057878   -2.6402359914    2.2618317999
N        0.3837816177   -4.7303184870    1.1793702367
O        1.5739727899   -2.6031270488    4.2499687188
S       -2.4193495306   -5.6496400234    0.8680466224
H        2.1425887738   -5.0844512562    4.0146114287
H       -3.6224768475   -4.2800165452   -2.2835839841
H        1.3916823391   -6.4419821866    2.0724213764
H       -4.0367227572   -7.5580500239    0.5312436580
H       -2.0359224063   -2.5464128833   -1.3056630450
H       -0.6287493438   -1.6416706949    0.2601761031
H        0.0723197648   -5.1915006411    0.3326610582
