25   

C       -0.1368594350   -5.5670983399   -3.8041368961
C        0.1130598101   -4.7716709827   -2.6105585305
C       -0.4081183205   -4.7856899014   -4.8962161168
C        0.0163956338   -1.0204896773   -1.8753748283
C        0.2404608229   -2.3720519471   -1.8595235012
C       -0.0001617853   -3.4173698093   -2.8393193816
C        0.4894434376   -0.5382075685   -0.5908708159
C       -2.1340051908   -0.2769421671   -2.9616482841
C        0.4040506846    0.8599745095   -0.0533121985
C       -0.6119470701   -0.1482964876   -2.9450174757
N        0.9634733527   -1.5338756913    0.1100750747
N        0.8188893528   -2.6537362351   -0.6506856914
O       -2.6853322430   -0.4710715023   -4.0327210468
O       -2.8023687096   -0.1447223195   -1.7878288891
S       -0.3707744533   -3.0698988982   -4.5109459257
H       -0.1133577488   -6.6513823961   -3.8267515093
H        0.3507718949   -5.2156549096   -1.6518890022
H       -0.6260847888   -5.1678744533   -5.8868772983
H       -0.4759925864    1.3712575068   -0.4516583692
H        0.3331752866    0.8371282531    1.0380340458
H        1.3007446104    1.4179832763   -0.3347740791
H       -0.2031034725   -0.3925110631   -3.9274290894
H       -0.3651102007    0.8997841114   -2.7622433908
H        1.1223405854   -3.5822864525   -0.3699608295
H       -3.7430161238   -0.2768875256   -1.9875370122
25   

C       -0.0625407724   -5.4653946062   -4.0060496814
C        0.0293477300   -4.6994495972   -2.7714935661
C        0.0182601999   -4.6644935554   -5.1147379372
C        0.1540323316   -0.9854058990   -1.9413645558
C        0.3398292724   -2.3406023283   -1.9612229066
C        0.1325320198   -3.3438956784   -2.9927386050
C        0.5723527242   -0.5618267507   -0.6169068211
C       -1.9840945712   -0.2111730704   -2.9676520892
C        0.5392967161    0.8228605433   -0.0395761852
C       -0.4633254293   -0.0884387986   -2.9944384863
N        0.9980574946   -1.5933824834    0.0638975585
N        0.8747282051   -2.6797696321   -0.7478975860
O       -2.5378036906   -0.8241084608   -3.8656128855
O       -2.6501390597    0.4168794455   -1.9659952095
S        0.2027502305   -2.9659761450   -4.6950898536
H       -0.1845185566   -6.5425485082   -4.0446020272
H        0.0014432637   -5.1578854608   -1.7904255730
H       -0.0324542553   -5.0225351944   -6.1365277929
H       -0.4255977700    0.9887383845    0.4478386766
H        1.3300003075    0.9360197504    0.7075150566
H        0.6756570695    1.5761860346   -0.8182057766
H       -0.0846579319   -0.3293976210   -3.9890017875
H       -0.2021716444    0.9546643968   -2.8061400780
H        1.1708137897   -3.6212276971   -0.5030634750
H       -3.5920715897    0.2191370040   -2.0943626797
25   

C       -0.0431669207   -5.4272131117   -3.9674104453
C       -0.0595249242   -4.6326429987   -2.7476602026
C        0.2938657868   -4.6776327524   -5.0643249393
C        0.2044375360   -0.9455324134   -1.9427309838
C        0.3992661791   -2.2969924972   -1.9443949881
C        0.2026457551   -3.3020727775   -2.9789424208
C        0.6451074924   -0.4976802324   -0.6342044059
C       -1.9669117108   -0.1852122641   -2.8929775989
C        0.5994798943    0.8931169251   -0.0731679190
C       -0.4482837113   -0.0889682236   -3.0065760087
N        1.1011959100   -1.5147361036    0.0498762582
N        0.9749828727   -2.6141193461   -0.7450194134
O       -2.5703481230   -0.8789930615   -3.6950294624
O       -2.5761937589    0.5489292109   -1.9280514290
S        0.5926513949   -2.9929134980   -4.6525641157
H       -0.2740552293   -6.4864120071   -4.0047833965
H       -0.2717684159   -5.0470794469   -1.7691244152
H        0.3618599581   -5.0642378033   -6.0746471718
H       -0.3170282256    1.0175303581    0.5104152540
H        1.4553585673    1.0575624635    0.5873526934
H        0.6137906231    1.6401880070   -0.8692457362
H       -0.1328649956   -0.3942962661   -4.0056222898
H       -0.1566600508    0.9563754953   -2.8870788201
H        1.2960733790   -3.5480686901   -0.5012711636
H       -3.5249456651    0.3509859033   -1.9888928664
25   

C       -0.0623887385   -5.4547047094   -3.9408563445
C       -0.1747980746   -4.6307905473   -2.7457024464
C        0.5058586514   -4.7713225294   -4.9850927122
C        0.1781106340   -0.9903588716   -1.9279690636
C        0.4144036417   -2.3321734013   -1.9144152642
C        0.2384271745   -3.3374744119   -2.9568747610
C        0.6436608713   -0.5068099744   -0.6420168473
C       -2.0306705682   -0.2300826432   -2.7796085340
C        0.5649062788    0.8913195023   -0.1043542028
C       -0.5214475030   -0.1872729720   -3.0018315777
N        1.1580348208   -1.4974829445    0.0405567165
N        1.0454399433   -2.6131347011   -0.7350036433
O       -2.6982403177   -0.9997187603   -3.4511155991
O       -2.5615986401    0.6272202682   -1.8719437575
S        0.9110374363   -3.1131745276   -4.5547314065
H       -0.3926172908   -6.4862783182   -3.9992187781
H       -0.5553185538   -4.9937539194   -1.7978297237
H        0.6798905032   -5.1900446946   -5.9696043382
H       -0.3002192318    0.9754097448    0.5592428593
H        1.4657124786    1.1206941403    0.4714685972
H        0.4595397883    1.6184871033   -0.9120717275
H       -0.2886884425   -0.5798559037   -3.9939408752
H       -0.1893992427    0.8529064714   -2.9776159544
H        1.4070003465   -3.5328124454   -0.4923082594
H       -3.5155614139    0.4465007642   -1.8485026264
25   

C       -0.9977028561   -5.3476859165   -4.1558891192
C       -1.2208257730   -4.4622144599   -3.0215493133
C        0.1982972679   -5.0956988447   -4.7792639647
C        0.0682467145   -1.2587556209   -1.7515072739
C       -0.0727358126   -2.6112370407   -1.7546113880
C       -0.2230728286   -3.5303678158   -2.8823393920
C        0.2825935843   -0.8995294509   -0.3634103385
C       -1.5137646729    0.1144492964   -3.0867408618
C        0.4449288188    0.4771773145    0.2087298061
C       -0.0613827246   -0.3290887385   -2.9354666486
N        0.3080333170   -1.9823437375    0.3716329948
N        0.1138398266   -3.0380588155   -0.4703214631
O       -2.2375663661   -0.5055205201   -3.8489183853
O       -1.9178626401    1.2072128425   -2.3919722414
S        1.0835100374   -3.7768030735   -4.0191036225
H       -1.6981302302   -6.1127168065   -4.4732111549
H       -2.0836646023   -4.5187731087   -2.3675065349
H        0.5610998309   -5.6328248585   -5.6480302710
H       -0.5049114663    0.8044211030    0.6405091426
H        1.1987448007    0.4651771243    1.0007054539
H        0.7438447652    1.1898154910   -0.5629429373
H        0.2625475450   -0.8293515316   -3.8518305284
H        0.5702032399    0.5518022197   -2.7990606556
H        0.1256183534   -4.0181332458   -0.1960040834
H       -2.8607900989    1.3264281254   -2.5921255523
25   

C       -1.1412597194   -4.7295443692   -4.5830426080
C       -1.3182642388   -3.9129188148   -3.3904774796
C        0.1837044670   -4.9202173923   -4.8872024548
C       -0.1206034184   -1.2868779232   -1.6896240905
C        0.0409160556   -2.6362598419   -1.6980115104
C       -0.1225733426   -3.5723850782   -2.8116490179
C        0.0733684987   -0.8874128198   -0.3103262539
C       -1.9062504365   -0.0175572948   -2.8871938062
C        0.0727684200    0.5084227838    0.2375139891
C       -0.4298372649   -0.3982331459   -2.8714061535
N        0.2884172820   -1.9467675929    0.4281057399
N        0.2551344671   -3.0261930215   -0.4066000802
O       -2.7147030680   -0.8297986825   -3.3078349594
O       -2.2443883780    1.2221710854   -2.4547537822
S        1.2566299066   -4.1259307267   -3.7376274757
H       -1.9633957189   -5.1295563456   -5.1666859586
H       -2.2807948502   -3.5832958243   -3.0131261210
H        0.5394360997   -5.4920493354   -5.7364851478
H       -0.9054208320    0.7309696837    0.6713849564
H        0.8299246590    0.6006081436    1.0213853963
H        0.2838936500    1.2350126697   -0.5505402303
H       -0.1799802575   -0.9088672460   -3.8056481605
H        0.1777214673    0.5093018322   -2.8244719525
H        0.3729618351   -3.9959804157   -0.1204562956
H       -3.2112511503    1.2832824415   -2.5230678802
25   

C       -1.0690645637   -4.6122682328   -4.7188256624
C       -1.2488763361   -3.7353879475   -3.5709525300
C        0.2189998380   -5.0716826297   -4.8199009497
C       -0.1877382505   -1.3324289454   -1.7009391913
C        0.0752670196   -2.6694887443   -1.7163071596
C       -0.1133948575   -3.6243547523   -2.8065492069
C        0.0369609116   -0.9114868340   -0.3323772038
C       -2.0337069891   -0.0177064963   -2.7887453489
C       -0.0087996256    0.4872612185    0.2064830832
C       -0.5728519699   -0.4492614912   -2.8674151296
N        0.3454149798   -1.9493645228    0.4013817730
N        0.3474586871   -3.0328222863   -0.4275135627
O       -2.8911694079   -0.7842782837   -3.1964354793
O       -2.3039778954    1.2203023381   -2.3075876481
S        1.2461820053   -4.4653622591   -3.5249730045
H       -1.8620096273   -4.8633099019   -5.4151531391
H       -2.1747281933   -3.2174017161   -3.3466186316
H        0.5729420407   -5.7334710961   -5.6019630420
H       -0.9884917084    0.6769715303    0.6521296663
H        0.7558342206    0.6141873596    0.9782372250
H        0.1650135013    1.2149584442   -0.5897755634
H       -0.4009853202   -0.9714214170   -3.8126262375
H        0.0616756892    0.4410312686   -2.8766812078
H        0.5219598319   -3.9928933358   -0.1375287236
H       -3.2699740103    1.3192062572   -2.3302360214
25   

C       -1.0087935926   -4.6064864804   -4.7816542754
C       -1.1940928923   -3.6459768827   -3.7038507134
C        0.2031852263   -5.2416177496   -4.7035718490
C       -0.2466993135   -1.3413714341   -1.6990782244
C        0.0481214302   -2.6742984023   -1.7347131845
C       -0.1481538487   -3.6357111447   -2.8124791643
C        0.0284747317   -0.9218783579   -0.3384416247
C       -2.1423687696   -0.0158074333   -2.6996403290
C       -0.0232091522    0.4718363332    0.2135828963
C       -0.6831713946   -0.4409198879   -2.8355363140
N        0.3968142621   -1.9539397261    0.3742772213
N        0.3895953636   -3.0320217950   -0.4603460692
O       -3.0090570980   -0.7605094441   -3.1271960777
O       -2.4013301782    1.1979129596   -2.1551205356
S        1.1479569273   -4.7021112598   -3.3202999035
H       -1.7445310164   -4.7910970589   -5.5570933556
H       -2.0672466386   -3.0112444367   -3.6138117723
H        0.5472603499   -5.9922568807   -5.4057437291
H       -0.9915638091    0.6418190075    0.6908440097
H        0.7629964096    0.6055696599    0.9621908110
H        0.1141307084    1.2091668190   -0.5808685828
H       -0.5370075011   -0.9398692500   -3.7969987728
H       -0.0552914073    0.4539815973   -2.8506602211
H        0.6026304270   -3.9880566693   -0.1830744700
H       -3.3676594407    1.2967243134   -2.1514855823
25   

C       -0.9370427143   -4.5922858319   -4.8488655341
C       -1.1053818186   -3.5599805335   -3.8366489232
C        0.1652472722   -5.3710501931   -4.6134333492
C       -0.2574070973   -1.3388595318   -1.6980822804
C        0.0384130219   -2.6726883389   -1.7614108733
C       -0.1577160718   -3.6249228291   -2.8423469620
C        0.0718423734   -0.9351965635   -0.3436355799
C       -2.1955873694   -0.0354481979   -2.6476498776
C        0.0309222246    0.4485778337    0.2347393956
C       -0.7238808143   -0.4093915113   -2.7996222633
N        0.4819858770   -1.9718122074    0.3381270728
N        0.4490549507   -3.0383987112   -0.5094492126
O       -3.0345073127   -0.7373873940   -3.1879570320
O       -2.4945718702    1.0982049811   -1.9679263123
S        1.0243376134   -4.8811960863   -3.1584293583
H       -1.6078631558   -4.7250379277   -5.6909419958
H       -1.9058939423   -2.8321319459   -3.8644584112
H        0.4772547183   -6.1966967232   -5.2426164307
H       -0.9224621400    0.6041256226    0.7458884850
H        0.8400854435    0.5737822631    0.9599920464
H        0.1382499962    1.2018292293   -0.5490941633
H       -0.5566523331   -0.8607781512   -3.7805741765
H       -0.1270866411    0.5061992381   -2.7791349848
H        0.6905788313   -3.9940959950   -0.2553637747
H       -3.4628029383    1.1756788953   -1.9752614133
25   

C       -0.8439933169   -4.5834739435   -4.8698270836
C       -0.9855817610   -3.4795728423   -3.9317256491
C        0.1154577984   -5.4773949048   -4.4750122029
C       -0.2741745505   -1.3030231954   -1.6899722749
C        0.0185843682   -2.6392502899   -1.7586590364
C       -0.1543661962   -3.5911959605   -2.8407439155
C        0.0821816271   -0.8992792464   -0.3413378397
C       -2.2455939218   -0.0708150391   -2.6645175335
C        0.0356418737    0.4796270736    0.2493840966
C       -0.7516319017   -0.3605620125   -2.7762949862
N        0.5219394396   -1.9317769844    0.3272637468
N        0.4794530155   -2.9966102015   -0.5210043851
O       -3.0181463681   -0.7174352595   -3.3527108607
O       -2.6350913225    0.9415065536   -1.8519460302
S        0.8702058162   -5.0100136487   -2.9568834712
H       -1.4340297032   -4.6839069983   -5.7745391766
H       -1.6951044152   -2.6773402729   -4.0815105365
H        0.3820405883   -6.3724272389   -5.0252660279
H       -0.9118534724    0.6201992931    0.7756911258
H        0.8537168026    0.6071912196    0.9641492900
H        0.1231852921    1.2422184384   -0.5274824039
H       -0.5199359775   -0.7622816339   -3.7653107153
H       -0.2097915308    0.5855778655   -2.7035425885
H        0.7475279183   -3.9477584384   -0.2767103114
H       -3.6040134832    0.9812055595   -1.9068147843
25   

C       -0.7443529006   -4.6086039809   -4.8729902799
C       -0.8229242140   -3.4446911615   -4.0024977073
C        0.0355119713   -5.6001659552   -4.3418898501
C       -0.2464963512   -1.3015074331   -1.6798965884
C        0.0450753445   -2.6406706168   -1.7512960624
C       -0.1159560001   -3.5971241929   -2.8306256015
C        0.1784165084   -0.8844488232   -0.3545289388
C       -2.2778366712   -0.2099316951   -2.7169717551
C        0.1163070162    0.4888013685    0.2478758415
C       -0.7574896355   -0.3498804069   -2.7437549383
N        0.6487106338   -1.9092963099    0.3030620919
N        0.5616383153   -2.9819931210   -0.5301132305
O       -2.9297771435   -0.7697261276   -3.5830959732
O       -2.8245099616    0.5925254490   -1.7715449890
S        0.6943266646   -5.1524908094   -2.7749291295
H       -1.2516206117   -4.6799044115   -5.8292068009
H       -1.4061593404   -2.5744098277   -4.2649265174
H        0.2261432262   -6.5531324927   -4.8219413957
H       -0.6218810928    1.1105609259   -0.2627749141
H       -0.1493347208    0.4188461893    1.3063305181
H        1.0969821206    0.9656433580    0.1688867467
H       -0.4231312035   -0.6669825472   -3.7340874521
H       -0.3215404138    0.6398361903   -2.5853598866
H        0.8477052897   -3.9289948556   -0.2901920605
H       -3.7858625846    0.5628146491   -1.9058102065
25   

C       -0.7131191844   -4.6440622460   -5.0099847527
C       -0.6485059218   -3.4465689468   -4.1849270772
C       -0.1932661887   -5.7393963069   -4.3752586260
C       -0.1136661843   -1.3740446587   -1.7826848324
C        0.1230669007   -2.7236446444   -1.8674474981
C       -0.0799948880   -3.6698881101   -2.9498637425
C        0.3446473598   -0.9822492441   -0.4613693351
C       -2.1667285832   -0.3710064934   -2.8536523983
C        0.2905812758    0.3810188572    0.1638381345
C       -0.6412375158   -0.3968768130   -2.8143075700
N        0.8105320188   -2.0233002236    0.1730734959
N        0.6795215568   -3.0844241560   -0.6690756187
O       -2.7287353931   -0.7769370793   -3.8579213739
O       -2.8206577045    0.1594821620   -1.7912770000
S        0.3894535653   -5.3516370482   -2.7632071763
H       -1.1323826242   -4.6630535493   -6.0103041740
H       -1.0354665862   -2.4999090644   -4.5315389076
H       -0.1457584314   -6.7325347274   -4.8069636140
H       -0.5245014698    0.9718595242   -0.2608787149
H        0.1362808571    0.2904855906    1.2428103071
H        1.2367277448    0.9006366287   -0.0094622015
H       -0.2357070874   -0.6269644514   -3.8016871587
H       -0.2925876902    0.6114050595   -2.5785255005
H        0.9588617936   -4.0381588497   -0.4487630804
H       -3.7694337356    0.0863932889   -1.9845832505
25   

C       -0.8923831332   -4.5189386812   -4.8927510747
C       -0.5822883304   -3.3090574092   -4.1453984601
C       -0.7483716809   -5.6482132788   -4.1327581537
C        0.0009357452   -1.2358782562   -1.7669079342
C        0.1362986170   -2.5998858606   -1.8109688338
C       -0.1963372879   -3.5602435353   -2.8467708235
C        0.5208297722   -0.8377573009   -0.4713008833
C       -2.0873545755   -0.4956611762   -2.9955403153
C        0.5354054433    0.5389551775    0.1252675958
C       -0.5871109973   -0.2862805488   -2.7926362587
N        0.9451616221   -1.8882587610    0.1778658244
N        0.7181172877   -2.9630919081   -0.6264854747
O       -2.5087225793   -0.5263671070   -4.1407158679
O       -2.8775104214   -0.6324786071   -1.9018065735
S       -0.2327103272   -5.2787351269   -2.4934267885
H       -1.2036268932   -4.5209551018   -5.9319707032
H       -0.6504443319   -2.3290945462   -4.5959992710
H       -0.9289177130   -6.6550997658   -4.4913174432
H       -0.3531392180    1.0977316623   -0.1793550366
H        0.5516201167    0.4738785982    1.2171983181
H        1.4278541598    1.0750805435   -0.2078263014
H       -0.0589709710   -0.3947662338   -3.7426449781
H       -0.4373006643    0.7476448182   -2.4751645708
H        0.9456897997   -3.9260850902   -0.3879576877
H       -3.7787525151   -0.7912106286   -2.2255486844
25   

C       -0.9498546187   -4.3926084795   -4.8915797148
C       -0.4700548165   -3.2334848319   -4.1538797123
C       -1.0892232740   -5.4939460400   -4.0895457684
C        0.0638043732   -1.1950843427   -1.7551878767
C        0.1613939949   -2.5610809937   -1.7944851607
C       -0.2312951121   -3.5034631077   -2.8252391934
C        0.6363979036   -0.8074857047   -0.4786413574
C       -2.0549645933   -0.6422911412   -3.0551542502
C        0.7561735680    0.5746270445    0.0928017561
C       -0.6070265226   -0.2588054760   -2.7441177600
N        1.0744201266   -1.8654546199    0.1504103807
N        0.8019533340   -2.9364345373   -0.6457055590
O       -2.4283132198   -0.5477620387   -4.2135154597
O       -2.8500384533   -1.0742807683   -2.0445708679
S       -0.6409137237   -5.1594570859   -2.4221238179
H       -1.1733020205   -4.3805119710   -5.9530680591
H       -0.3133108543   -2.2704637440   -4.6223653534
H       -1.4339981008   -6.4622857867   -4.4336413733
H       -0.1476021630    0.8120369852    0.6609935253
H        1.6148571455    0.6273878477    0.7682274932
H        0.8826018062    1.3142604232   -0.7010602822
H       -0.0254341902   -0.2262792134   -3.6686048244
H       -0.6250489730    0.7561858452   -2.3424589328
H        1.0309810769   -3.9026341456   -0.4220705547
H       -3.7020798564   -1.3146886959   -2.4422758350
25   

C       -0.9198272277   -4.3432737687   -4.9234311771
C       -0.3408732049   -3.2283209990   -4.1889674471
C       -1.2704764436   -5.3784064736   -4.0971213033
C        0.0517117265   -1.1625279483   -1.7977732080
C        0.1718113997   -2.5252711840   -1.8187964623
C       -0.2252845715   -3.4783871825   -2.8413467857
C        0.6669290739   -0.7463013345   -0.5509297961
C       -2.0853103139   -0.7605641753   -3.1353917861
C        0.7698702457    0.6447194771    0.0012863109
C       -0.6819209605   -0.2655429247   -2.7792765255
N        1.1639093765   -1.7855947793    0.0667645186
N        0.8860729557   -2.8729405894   -0.7059712785
O       -2.4349758549   -0.6747265054   -4.3018588241
O       -2.8685876368   -1.2750573044   -2.1545724185
S       -0.9040541626   -5.0346939348   -2.4109173784
H       -1.0621861837   -4.3474689155   -5.9988385159
H       -0.0370143205   -2.3024624298   -4.6623062391
H       -1.7208718865   -6.3049662149   -4.4340921196
H       -0.0923656895    0.8446693205    0.6436489665
H        1.6789753382    0.7424079750    0.6014107598
H        0.7930094618    1.3827077312   -0.8037229558
H       -0.0881315931   -0.1645449583   -3.6910950688
H       -0.7943955613    0.7338342832   -2.3539445807
H        1.1576761349   -3.8295682813   -0.4888496044
H       -3.6831615284   -1.5840848429   -2.5821811528
25   

C       -0.8910504966   -4.2951290735   -4.9236617274
C       -0.2237229520   -3.2484445860   -4.1640795823
C       -1.4519375405   -5.2443765727   -4.1095108835
C        0.0287345833   -1.1667742336   -1.7670455573
C        0.1652545316   -2.5261101571   -1.7853742145
C       -0.2430742693   -3.4791156316   -2.8092347801
C        0.6928355278   -0.7364050425   -0.5509987724
C       -2.1246275273   -0.8543134688   -3.1086495493
C        0.7926769548    0.6578886927   -0.0070589966
C       -0.7510955544   -0.2935624072   -2.7341945690
N        1.2430296285   -1.7647052334    0.0407431593
N        0.9510404605   -2.8592106317   -0.7174584571
O       -2.4610881435   -0.7894278404   -4.2803703356
O       -2.8998988750   -1.3953892517   -2.1358358761
S       -1.1802111809   -4.9024618420   -2.4046294485
H       -0.9455918689   -4.3128122020   -6.0069068155
H        0.2278541269   -2.3741310512   -4.6184623901
H       -2.0002975209   -6.1089792488   -4.4653710485
H       -0.0272414552    0.8328356858    0.6951907870
H        1.7386692179    0.7836640968    0.5271495000
H        0.7357308242    1.3947697479   -0.8113973728
H       -0.1610885092   -0.1481700160   -3.6426116722
H       -0.9162705720    0.6905749385   -2.2904777658
H        1.2582316780   -3.8090488448   -0.5186023287
H       -3.6912779782   -1.7454083923   -2.5751916581
25   

C        0.2185886684   -4.6759236462   -4.6881183593
C        0.6886237374   -3.7455139906   -3.6718892474
C       -1.0289658533   -5.1660204742   -4.3981731562
C        0.0660399910   -1.2910122802   -1.6239576363
C       -0.0743647676   -2.6433029655   -1.5445381946
C       -0.1865183346   -3.6273783162   -2.6204938810
C        0.2306150830   -0.8416011874   -0.2550552141
C       -1.4791596625   -0.0200267401   -3.1021339646
C        0.3721713561    0.5691581434    0.2340767589
C       -0.0285771226   -0.4302087969   -2.8636391130
N        0.2307850804   -1.8736816027    0.5491161227
N        0.0607877156   -2.9818403793   -0.2278357444
O       -2.1379766562   -0.6503223701   -3.9129279841
O       -1.9493685910    1.0621074641   -2.4327291798
S       -1.6624047406   -4.5246226429   -2.8858655048
H        0.7849483865   -4.9424597979   -5.5738842061
H        1.6220325121   -3.1978938986   -3.7354406803
H       -1.5720957122   -5.8670734915   -5.0212922903
H       -0.5959404019    0.9249177841    0.5974356031
H        1.0868171216    0.6074214651    1.0607743712
H        0.7109552203    1.2304251315   -0.5661815630
H        0.3421191842   -0.9703383796   -3.7379358797
H        0.5811603601    0.4689919805   -2.7502487367
H        0.0314314552   -3.9401908533    0.1142486753
H       -2.8814626746    1.1592527260   -2.6881503541
25   

C        0.4221930531   -5.0542792134   -4.4162037518
C        0.8773099835   -4.0971483227   -3.4171030567
C       -0.9377536634   -5.2378078072   -4.3734941050
C       -0.0985386509   -1.2653132307   -1.6424541666
C       -0.0346463348   -2.6213253610   -1.5858038933
C       -0.1577080707   -3.6046496031   -2.6641894282
C        0.0861084472   -0.8198931700   -0.2750382475
C       -1.7934327940   -0.0318929104   -2.9964086459
C        0.1275220981    0.5938628781    0.2231844433
C       -0.3224867848   -0.4151594672   -2.8712047087
N        0.2396863544   -1.8573208571    0.5094711321
N        0.1620425807   -2.9684091474   -0.2791674586
O       -2.5140442439   -0.7087535834   -3.7113270359
O       -2.2152235620    1.0801790181   -2.3445790034
S       -1.7084757157   -4.2621263553   -3.1254285048
H        1.0804683708   -5.5589871389   -5.1151451642
H        1.9110908239   -3.7988955707   -3.2833136757
H       -1.4872650083   -5.9014579688   -5.0311232422
H       -0.8491124029    0.8641576344    0.6333722149
H        0.8749594659    0.6879432166    1.0159248722
H        0.3731456272    1.2852326372   -0.5860007229
H       -0.0122156271   -0.9583082569   -3.7683284577
H        0.2801346343    0.4945880401   -2.8134881396
H        0.2262094059   -3.9300590041    0.0485375968
H       -3.1659576456    1.1598482858   -2.5263473210
25   

C        0.4008258433   -5.3883088187   -4.0788228727
C        0.8835678441   -4.4151852983   -3.1093445595
C       -0.9361497190   -5.2319517938   -4.3410618779
C       -0.2029810803   -1.2183298781   -1.6228979994
C        0.0518342948   -2.5536687109   -1.6459483201
C       -0.0855882678   -3.5146572122   -2.7404103529
C       -0.0037541490   -0.8166207824   -0.2443409459
C       -2.0134245911    0.1035733122   -2.7529827938
C       -0.0444940646    0.5760966132    0.3098322625
C       -0.5530196533   -0.3322563526   -2.7965284043
N        0.2838004575   -1.8664426551    0.4830656561
N        0.2913629935   -2.9412066502   -0.3573677540
O       -2.8555100496   -0.6267320555   -3.2483811804
O       -2.2968428987    1.3131674503   -2.2098744615
S       -1.6426438955   -3.8998472989   -3.4323913240
H        1.0245314810   -6.1474820910   -4.5385000784
H        1.8959851104   -4.3985335530   -2.7217173987
H       -1.5025946389   -5.8454904756   -5.0321946222
H       -1.0242524810    0.7651801733    0.7556052537
H        0.7190884741    0.6909170055    1.0845430564
H        0.1341354030    1.3114622595   -0.4783039249
H       -0.3625596258   -0.8574023358   -3.7366928708
H        0.0849036326    0.5556045795   -2.7886951675
H        0.4259019052   -3.9090878935   -0.0727451101
H       -3.2603584678    1.4197869046   -2.2692683430
25   

C        0.3582961252   -5.5082294707   -4.0167233418
C        0.8236432486   -4.5583929856   -3.0163142370
C       -0.8999169248   -5.2036261157   -4.4677028571
C       -0.2800712932   -1.2310025731   -1.6982698401
C        0.0481074229   -2.5516228068   -1.7314263656
C       -0.0657976036   -3.5310813951   -2.8070151948
C       -0.0466881320   -0.8154305815   -0.3288699241
C       -2.1785536481    0.0447631907   -2.7436847633
C       -0.1354365155    0.5750756873    0.2256032333
C       -0.7108774711   -0.3546688948   -2.8531596892
N        0.3287692771   -1.8450540471    0.3866677915
N        0.3619426056   -2.9196159270   -0.4526763577
O       -3.0260511654   -0.7211814844   -3.1711372225
O       -2.4654129903    1.2622369835   -2.2205337849
S       -1.5489598600   -3.7569852149   -3.7037401660
H        0.9375027019   -6.3574975837   -4.3630637575
H        1.7711670035   -4.6489568036   -2.4975287235
H       -1.4409090389   -5.7751557229   -5.2131052557
H       -1.1131920288    0.7233554345    0.6906786778
H        0.6382698573    0.7237074418    0.9843910350
H       -0.0036920479    1.3161981501   -0.5663838871
H       -0.5474360748   -0.8706600356   -3.8030781555
H       -0.0969467525    0.5498347684   -2.8726589761
H        0.5550642175   -3.8778492178   -0.1700147670
H       -3.4332062199    1.3430044711   -2.2328460736
25   

C        0.2833166601   -5.5298680054   -3.9902375185
C        0.7236483953   -4.6378998003   -2.9271836801
C       -0.8579687253   -5.0784342143   -4.6001807538
C       -0.2840508872   -1.2098860994   -1.7004145922
C        0.0471562907   -2.5318163785   -1.7475490235
C       -0.0642518194   -3.5151654338   -2.8149111295
C        0.0000150206   -0.7953349170   -0.3395530348
C       -2.2227429708    0.0493393927   -2.6937726170
C       -0.0825383860    0.5913480775    0.2263309327
C       -0.7475150801   -0.3138906320   -2.8284015086
N        0.4164177039   -1.8212344521    0.3575393796
N        0.4271625913   -2.8934135373   -0.4843544963
O       -3.0576655866   -0.7165520880   -3.1452903178
O       -2.5306230999    1.2395612015   -2.1221166303
S       -1.4246197594   -3.5612485323   -3.9121438484
H        0.7970086913   -6.4443577430   -4.2668629205
H        1.5867584130   -4.8370932940   -2.3028244341
H       -1.3604033862   -5.5847648636   -5.4163322040
H       -1.0447166573    0.7268978925    0.7264887126
H        0.7158339065    0.7432810730    0.9584403778
H        0.0136989341    1.3394867043   -0.5639947177
H       -0.5775411718   -0.7948874868   -3.7947614141
H       -0.1561617398    0.6055887387   -2.8292048586
H        0.6462213532   -3.8480513064   -0.2096885069
H       -3.4999564111    1.3003148950   -2.1244208843
25   

C        0.2148544821   -5.6169168499   -3.9185883588
C        0.6157085834   -4.7706178007   -2.8038315837
C       -0.7822617790   -5.0462983057   -4.6651406260
C       -0.2592014385   -1.2458092900   -1.6781837242
C        0.0586208840   -2.5741769656   -1.7235764376
C       -0.0622613307   -3.5717850708   -2.7735952807
C        0.0873103248   -0.8179391729   -0.3346998285
C       -2.2509563185   -0.0610938926   -2.6577747228
C        0.0251977423    0.5705155066    0.2308995755
C       -0.7568731920   -0.3402873638   -2.7854440636
N        0.5393685165   -1.8351652336    0.3516093292
N        0.5128497887   -2.9150700743   -0.4784448804
O       -3.0321019321   -0.7532927103   -3.2889400303
O       -2.6329955323    0.9919192627   -1.8938140285
S       -1.2585428709   -3.4707282767   -4.0443674109
H        0.6540238882   -6.5851020739   -4.1340920471
H        1.3785413546   -5.0590086478   -2.0907672615
H       -1.2314248608   -5.5002452426   -5.5409763535
H       -0.9172296006    0.7053614664    0.7676299243
H        0.8507588396    0.7251028907    0.9316025334
H        0.0892198933    1.3188205127   -0.5621359924
H       -0.5436179436   -0.7738995804   -3.7649972767
H       -0.2201874198    0.6109863943   -2.7497981840
H        0.7592784607   -3.8627802428   -0.2043783764
H       -3.6030928786    1.0180328619   -1.9308236680
25   

C        0.1558721513   -5.5993043784   -3.8917925420
C        0.4912699324   -4.7920806829   -2.7274438716
C       -0.6442420347   -4.9230236982   -4.7743542615
C       -0.2190318146   -1.1749428117   -1.7151505784
C        0.0805820470   -2.5119024531   -1.7486288515
C       -0.0484109165   -3.5247645405   -2.7823181867
C        0.1985989124   -0.7240116508   -0.3985634766
C       -2.2642779269   -0.1203218010   -2.7503906473
C        0.1385501255    0.6649401344    0.1666418784
C       -0.7452570315   -0.2624021586   -2.8053500233
N        0.6634186842   -1.7325252020    0.2896895208
N        0.5803054097   -2.8282187828   -0.5133892106
O       -2.9397844301   -0.7385535657   -3.5560807760
O       -2.7855698863    0.7483449768   -1.8492246004
S       -1.0115589043   -3.2936300283   -4.2235161091
H        0.5003152989   -6.6165102204   -4.0445593244
H        1.1124815446   -5.1616997998   -1.9211490616
H       -1.0131858734   -5.3317780441   -5.7079961782
H       -0.5800049675    1.2817377773   -0.3767376820
H       -0.1515356547    0.6252855612    1.2202059550
H        1.1262116410    1.1287517989    0.0980457254
H       -0.4390261679   -0.6205036773   -3.7905512388
H       -0.3029778720    0.7308635756   -2.6940419272
H        0.8399918276   -3.7696144925   -0.2312382719
H       -3.7497618036    0.7097306198   -1.9573522395
25   

C       -0.0689199533   -5.5868722684   -3.8240873345
C        0.2674330858   -4.7894578750   -2.6530730095
C       -0.6433730641   -4.8333637416   -4.8136836723
C       -0.1123182658   -1.0696661817   -1.8196961280
C        0.1480848970   -2.4163602019   -1.8128005747
C       -0.0644025025   -3.4598964839   -2.8006841530
C        0.3544630198   -0.5809357803   -0.5351110429
C       -2.2303391663   -0.2044370863   -2.9003596663
C        0.2698366582    0.8196618050   -0.0034384859
C       -0.7031055803   -0.1865356950   -2.9025961721
N        0.8457992496   -1.5688462937    0.1639103201
N        0.7210570988   -2.6890629221   -0.5991937953
O       -2.8063142997   -0.3456231909   -3.9667353057
O       -2.8741682857   -0.0381671827   -1.7175948850
S       -0.7934678379   -3.1411661547   -4.3581899463
H        0.1137327103   -6.6531198386   -3.9047610927
H        0.7300621281   -5.2151604977   -1.7715491143
H       -0.9720031106   -5.2225819109   -5.7705140708
H       -0.5791713049    1.3491932743   -0.4427037937
H        0.1492689865    0.7994474486    1.0834505960
H        1.1903572884    1.3587405179   -0.2422564325
H       -0.3253587461   -0.4823740446   -3.8835237885
H       -0.3792965777    0.8458863050   -2.7529312166
H        1.0153644263   -3.6169244416   -0.3071468941
H       -3.8240655096   -0.0951510840   -1.9088204021
