9    
Generated by ForceBalance from scan.xyz: Frame 1 of 24
C       -0.2373685030   -0.7553842869   -0.8476590659
C        0.1563272733    0.6872499118   -0.6723527802
O       -0.3290759248   -1.3527024514   -1.8927660246
O       -0.7488270748   -0.6093463789    1.4421677768
O       -0.5456577149   -1.4848744403    0.2907117142
H        0.4748930391    1.0646494918   -1.6436902848
H       -0.6940641610    1.2696827400   -0.3081481175
H        0.9574691673    0.7906997977    0.0630226417
H       -0.2742424295   -1.1251821970    2.1213714781
9    
Generated by ForceBalance from scan.xyz: Frame 2 of 24
C       -0.2578452345   -0.7626809498   -0.8841486353
C        0.1572674038    0.6744572853   -0.7039718891
O       -0.4669175109   -1.3200333177   -1.9331430340
O       -0.8570774746   -0.6685954594    1.3758027102
O       -0.4424336817   -1.5232615061    0.2677336688
H        0.5018445846    1.0471231707   -1.6686080444
H       -0.6974001669    1.2683334656   -0.3693416007
H        0.9405588135    0.7730240900    0.0508574764
H       -0.2758472963   -1.0110222395    2.0814475712
9    
Generated by ForceBalance from scan.xyz: Frame 3 of 24
C       -0.2263566101   -0.7661817837   -0.8680744923
C        0.1863165223    0.6720388406   -0.6822481943
O       -0.5319189730   -1.2890435484   -1.9092366693
O       -0.9334431556   -0.7825025285    1.3448348488
O       -0.2842268511   -1.5542165191    0.2894731701
H        0.5292243031    1.0559804930   -1.6434539914
H       -0.6746562559    1.2588213133   -0.3510097982
H        0.9693654843    0.7706266959    0.0728702659
H       -0.2947742537   -0.9040664395    2.0735140491
9    
Generated by ForceBalance from scan.xyz: Frame 4 of 24
C        0.5557439714    0.0477125986    0.3829620664
C        0.0176265154    0.7774547144   -0.8155970887
O        1.7116470682   -0.1181532224    0.6721484543
O       -1.2404011911   -1.4070013721    0.5190131503
O       -0.4373998326   -0.4406425763    1.2688661934
H       -0.7903201820    0.2097928249   -1.2808350236
H       -0.4022076041    1.7309092433   -0.4771683203
H        0.8214448227    0.9644669669   -1.5275160839
H       -0.8850633495   -2.2355905817    0.8954520835
9    
Generated by ForceBalance from scan.xyz: Frame 5 of 24
C        0.5470814339   -0.1340994527    0.2167335316
C        0.0508547670    0.7372862271   -0.8999077327
O        1.6764268198   -0.4927141064    0.4188909515
O       -1.2188781390   -1.5683424387    0.4241774721
O       -0.4814299308   -0.5194927487    1.1281284164
H       -0.8122712642    0.2669243561   -1.3778176522
H       -0.2900962919    1.6883130666   -0.4772911740
H        0.8453787311    0.9158118617   -1.6244818847
H       -0.8113844006   -2.3605801465    0.8266762718
9    
Generated by ForceBalance from scan.xyz: Frame 6 of 24
C        0.4850440192   -0.1509179572    0.1657277904
C        0.0621322326    0.7954547388   -0.9172623464
O        1.5794268289   -0.6112208455    0.3532547364
O       -1.1841808815   -1.6639258599    0.4959224643
O       -0.5826892939   -0.4604411252    1.0649206262
H       -0.7714652933    0.3523101131   -1.4707485736
H       -0.3111085083    1.7182197481   -0.4615288221
H        0.8957376751    1.0124611670   -1.5852611958
H       -0.7008873375   -2.3566263212    0.9892969095
9    
Generated by ForceBalance from scan.xyz: Frame 7 of 24
C        0.4207321171   -0.2003610281    0.0875941608
C        0.0766818855    0.8453027942   -0.9302914991
O        1.4844416265   -0.7358573804    0.2595871741
O       -1.1584983765   -1.7842576616    0.6167786751
O       -0.6693288141   -0.4561592684    0.9647028263
H       -0.7056557673    0.4518646636   -1.5877769773
H       -0.3429491730    1.7213269538   -0.4260626176
H        0.9580652111    1.1213227239   -1.5092259170
H       -0.6005418737   -2.3491204905    1.1889355686
9    
Generated by ForceBalance from scan.xyz: Frame 8 of 24
C        0.3620163729   -0.2506549468    0.0013829618
C        0.1117876993    0.8878267964   -0.9445878296
O        1.3921957776   -0.8560483840    0.1615597119
O       -1.1433178706   -1.8502325924    0.7432500678
O       -0.7486060587   -0.4550767522    0.8409805981
H       -0.6034702281    0.5616709179   -1.7069933692
H       -0.3501307082    1.7222405885   -0.4085801917
H        1.0449148569    1.2006419270   -1.4129963972
H       -0.4918209350   -2.2854847390    1.3308683861
9    
Generated by ForceBalance from scan.xyz: Frame 9 of 24
C        0.2796762200   -0.3037776182   -0.0438516438
C        0.1114257846    0.8971846514   -0.9313097785
O        1.2700589954   -0.9844980467    0.0893980670
O       -1.1422021750   -1.8749093912    0.9137310901
O       -0.8353482128   -0.4644926049    0.7693885964
H       -0.5122953223    0.6153579777   -1.7862520186
H       -0.4091649376    1.6966594103   -0.3976415104
H        1.0857653792    1.2368183294   -1.2825294166
H       -0.3249076029   -2.2206129993    1.3329598418
9    
Generated by ForceBalance from scan.xyz: Frame 10 of 24
C        0.2140240819   -0.3282790160   -0.0994151971
C        0.1348910115    0.9096028798   -0.9489924608
O        1.1441709040   -1.1043121123   -0.0187261082
O       -1.1257899938   -1.8026384871    1.0955367595
O       -0.8853125019   -0.4257651513    0.7150109976
H       -0.3523433136    0.6483494596   -1.8943032309
H       -0.4648857675    1.6821015129   -0.4633884877
H        1.1420888782    1.2720594803   -1.1565830998
H       -0.2060399863   -2.1465267482    1.1827600201
9    
Generated by ForceBalance from scan.xyz: Frame 11 of 24
C        0.1605872539   -0.3421395164   -0.1018218994
C        0.1121907205    0.9228557209   -0.9132170740
O        1.0209021752   -1.2026756230   -0.1358771540
O       -1.0073823220   -1.7115404443    1.3614831541
O       -0.8796869006   -0.3967688288    0.7751826188
H       -0.1959390610    0.6658351610   -1.9314065609
H       -0.5977915927    1.6398188524   -0.4988008696
H        1.1136167267    1.3548917572   -0.9579645986
H       -0.1236701254   -2.1024275871    1.1480029022
9    
Generated by ForceBalance from scan.xyz: Frame 12 of 24
C        0.1108053193   -0.3653315715   -0.1473630149
C        0.1030922311    0.9306369088   -0.9100967183
O        0.8870424926   -1.2935150041   -0.2904458504
O       -0.8934532232   -1.6383603188    1.5086912154
O       -0.8910662275   -0.3984060918    0.7692880898
H       -0.0035227207    0.7070731256   -1.9746689079
H       -0.7044554246    1.5875180987   -0.5853476780
H        1.0667451174    1.4255301450   -0.7642207279
H       -0.1227188610   -2.1055847153    1.0966191381
9    
Generated by ForceBalance from scan.xyz: Frame 13 of 24
C        0.0755141717   -0.3984397316   -0.1967684930
C        0.1118050775    0.9232432266   -0.9128354686
O        0.7531034547   -1.3809847024   -0.4361529752
O       -0.7678215392   -1.5513086068    1.6308923296
O       -0.8968304362   -0.4078519383    0.7565117673
H        0.1974097656    0.7437084938   -1.9861251666
H       -0.7712857753    1.5245370291   -0.6927274017
H        1.0028140322    1.4671620130   -0.5842484980
H       -0.1670004241   -2.1310535281    1.0996452897
9    
Generated by ForceBalance from scan.xyz: Frame 14 of 24
C        0.0806417963   -0.4168359138   -0.2486086193
C        0.1539558194    0.9229839669   -0.9267701225
O        0.6396275220   -1.4407291826   -0.5848954328
O       -0.5331961258   -1.4066135542    1.7614388720
O       -0.8341040965   -0.3911936263    0.7731139284
H        0.4104417517    0.7841787390   -1.9774196017
H       -0.7867842954    1.4677207763   -0.8239721403
H        0.9398296076    1.5120175903   -0.4423065628
H       -0.1955894391   -2.1392487441    1.1948044644
9    
Generated by ForceBalance from scan.xyz: Frame 15 of 24
C        0.0396062949   -0.4635855320   -0.3128613806
C        0.1392841014    0.9164346395   -0.8992137065
O        0.5236905775   -1.4824140689   -0.7483434387
O       -0.3509932932   -1.3462272194    1.8026843509
O       -0.8470537033   -0.4719413638    0.7568268287
H        0.5176053966    0.8581283883   -1.9197612378
H       -0.8339556782    1.4135603147   -0.8737807825
H        0.8246824546    1.5089273606   -0.2839397779
H       -0.3146938782   -2.2135171697    1.3447273465
9    
Generated by ForceBalance from scan.xyz: Frame 16 of 24
C       -0.0026238818   -0.4936535650   -0.4075216207
C        0.1550117128    0.9173394528   -0.8952363910
O        0.4323478962   -1.4965299289   -0.9159172473
O       -0.2220282438   -1.2346587422    1.7783008643
O       -0.8884332809   -0.5480916963    0.6845282804
H        0.6330214403    0.9263217455   -1.8747323498
H       -0.8220819994    1.4076512385   -0.9376808209
H        0.7616019156    1.4739874544   -0.1731386127
H       -0.3245511863   -2.1735127961    1.5190130880
9    
Generated by ForceBalance from scan.xyz: Frame 17 of 24
C       -0.0836246454   -0.5366709877   -0.4782163606
C        0.1549637905    0.8982231612   -0.8415742024
O        0.3158123626   -1.5157711115   -1.0523497673
O       -0.1536266237   -1.1128498540    1.7457106468
O       -0.9698302340   -0.6564861116    0.6277987068
H        0.7293065555    0.9693078198   -1.7652982022
H       -0.8052513238    1.4131834613   -0.9443274375
H        0.6901871510    1.3847094047   -0.0193819649
H       -0.2038028958   -2.0838941047    1.6347853049
9    
Generated by ForceBalance from scan.xyz: Frame 18 of 24
C       -0.1560424279   -0.5785436842   -0.5536344285
C        0.1649511332    0.8647576479   -0.8009960846
O        0.2014164663   -1.5309668207   -1.1938157818
O       -0.1194496372   -0.9525259026    1.6921018257
O       -1.0282257203   -0.7576331780    0.5651282641
H        0.8298216099    0.9691985236   -1.6584642611
H       -0.7659767753    1.4150459897   -0.9714453563
H        0.6250321006    1.2855725336    0.0983644474
H       -0.0606902465   -1.9287948131    1.7085720048
9    
Generated by ForceBalance from scan.xyz: Frame 19 of 24
C       -0.1904498551   -0.6261356199   -0.6109424878
C        0.1763107378    0.8217025583   -0.7582274808
O        0.1138267665   -1.5357325094   -1.3354714852
O       -0.1161591935   -0.8315642215    1.6630362498
O       -1.0250716613   -0.8822061006    0.5181449719
H        0.8968953768    0.9509731121   -1.5658129462
H       -0.7326533513    1.3933629886   -0.9733856049
H        0.5794091267    1.1969547169    0.1858711140
H        0.0473064976   -1.7868203123    1.7913396797
9    
Generated by ForceBalance from scan.xyz: Frame 20 of 24
C       -0.4158071937   -0.6006210386   -0.7075112683
C        0.0778638023    0.8183065226   -0.7471567593
O       -0.2719045414   -1.4423092099   -1.5549221925
O       -0.2800734943   -0.7653230565    1.5979800232
O       -1.1692359917   -0.9290490973    0.4475349004
H        0.7861914901    0.9416696248   -1.5662901951
H       -0.7830623607    1.4771609130   -0.9039602972
H        0.5328751005    1.0940772734    0.2059326798
H       -0.0906748705   -1.7047821714    1.7879170740
9    
Generated by ForceBalance from scan.xyz: Frame 21 of 24
C       -0.2850232784   -0.7014429892   -0.7948422006
C        0.1156585391    0.7490364489   -0.7450188260
O       -0.0032364307   -1.4967419013   -1.6548561841
O       -0.4940891570   -0.6591905606    1.5288912932
O       -1.0686251456   -1.1573207090    0.2777278167
H        0.4628928711    1.0502784997   -1.7334141661
H       -0.7214329891    1.3704734639   -0.4191559263
H        0.9238462873    0.8810536272   -0.0207295247
H       -0.1937935552   -1.5086720116    1.9050821218
9    
Generated by ForceBalance from scan.xyz: Frame 22 of 24
C       -0.2648702920   -0.7405345960   -0.8195586877
C        0.1247207164    0.7118498582   -0.7418293969
O       -0.0475267199   -1.4958685952   -1.7345097900
O       -0.5505602223   -0.5796761971    1.5035661626
O       -0.9500932601   -1.2667397803    0.2740577890
H        0.3768092196    1.0504454233   -1.7467864901
H       -0.6809212406    1.3143515654   -0.3171860532
H        0.9964362481    0.8253565837   -0.0916993995
H       -0.2402513958   -1.3540587426    2.0103405337
9    
Generated by ForceBalance from scan.xyz: Frame 23 of 24
C       -0.3034605089   -0.7253004898   -0.8409568804
C        0.1036509521    0.7174694692   -0.7069798158
O       -0.2099703955   -1.4122034413   -1.8293097911
O       -0.6025224404   -0.5645931815    1.4881130776
O       -0.8531727357   -1.3416060330    0.2734227184
H        0.3591261139    1.0869594988   -1.6997432739
H       -0.7011337435    1.3120977106   -0.2685223859
H        0.9684422556    0.8042596250   -0.0440609598
H       -0.3157865970   -1.2928687520    2.0711042299
9    
Generated by ForceBalance from scan.xyz: Frame 24 of 24
C       -0.2703478984   -0.7341294006   -0.8513894833
C        0.1286191898    0.7084087895   -0.6932894935
O       -0.2735695650   -1.3727086705   -1.8763458475
O       -0.6560049098   -0.5648508430    1.4656443281
O       -0.6937934500   -1.4159792145    0.2767802989
H        0.4105888206    1.0844794103   -1.6762219436
H       -0.6990100292    1.2942650966   -0.2854770847
H        0.9644976538    0.8030506196    0.0041046778
H       -0.3166331638   -1.2172047967    2.1072848870
