29

C      5.47181    2.56440    0.07862
C      4.02960    4.38097    1.42965
C      4.11902    2.35848    0.36613
C      5.39064    4.56737    1.12950
C      3.43984    1.09102   -0.08738
C      0.45582   -0.76747    1.05323
C     -0.08104    0.17897   -0.75861
C      1.28262   -0.10088   -0.07594
C     -2.01965   -0.63858    0.59970
C     -2.54284   -1.85840    1.33869
N      3.40325    3.27289    1.04341
N      6.10897    3.67879    0.46500
N     -0.67894   -0.86578    0.10340
N      2.12488    1.01570    0.25713
O      4.05813    0.22827   -0.71099
F     -2.79331   -2.88700    0.46795
F     -3.73599   -1.53905    1.95252
Cl     6.17914    6.03584    1.65333
H      6.03753    1.81720   -0.46919
H      3.46423    5.12969    1.97805
H      0.81534   -1.71806    1.45900
H      0.26427   -0.06272    1.88167
H     -0.44313    1.19446   -0.52285
H     -0.16882    0.00059   -1.83471
H      1.88403   -0.82005   -0.62906
H     -2.69136   -0.44775   -0.24360
H     -2.08313    0.22448    1.28844
H     -1.86401   -2.23562    2.11001
H      1.74761    1.80522    0.77145
