65

C     -2.48826   -2.20423   -4.17909
C     -0.05808   -2.59618   -4.25027
C     -1.60883   -3.83769   -5.66293
C     -1.17285   -1.91793   -3.73371
C     -2.72326   -3.17087   -5.15504
C     -1.57336   -4.87464   -6.64308
C     -0.29431   -3.56995   -5.22192
C     -0.25054   -5.23288   -6.79062
C     -7.48896   -2.02197   -9.00538
C     -2.86673   -5.32816   -7.25827
C     -4.48791   -2.57316   -6.85189
C     -5.80552   -4.44837   -7.90434
C      1.08745    0.67389   -1.63231
C      0.29895    0.01550   -0.50080
C     -4.06175   -3.55633   -5.74544
C     -0.99388   -0.87066   -2.66303
C     -4.04797   -5.01781   -6.28117
C     -5.83296   -2.98197   -7.45183
C      0.39021   -6.26117   -7.66523
C     -9.89594   -0.08446  -10.02166
C     -5.88099   -1.08773  -11.85992
C     -5.58839   -6.73114   -7.12341
C     -9.06688   -1.19954  -10.66683
C     -6.69067   -0.40720  -10.74712
N      0.52567   -4.43395   -5.93451
N     -5.37937   -5.32342   -6.81703
N     -6.17727   -2.07687   -8.54766
N     -7.70013   -1.27482  -10.14674
O     -8.41273   -2.58771   -8.40961
S      0.11902    0.54002   -3.18986
S     -0.30623   -1.59216   -1.11471
H     -3.32204   -1.65899   -3.74036
H      0.93810   -2.35251   -3.89250
H     -3.03334   -4.82155   -8.21673
H     -2.85611   -6.40148   -7.47451
H     -4.55129   -1.55783   -6.44743
H     -3.71580   -2.55249   -7.63394
H     -6.81648   -4.73501   -8.20544
H     -5.16185   -4.53595   -8.80322
H      1.25422    1.73585   -1.42747
H      2.05308    0.17938   -1.76241
H      0.93278   -0.17260    0.37135
H     -0.54340    0.64282   -0.19446
H     -4.82964   -3.52691   -4.96356
H     -1.96291   -0.42921   -2.42533
H     -3.90687   -5.66723   -5.40855
H     -6.61472   -2.88101   -6.69641
H      1.06904   -5.80776   -8.39858
H      0.97017   -6.98770   -7.08239
H     -0.37550   -6.81106   -8.21734
H     -9.99143   -0.26646   -8.94827
H     -9.43121    0.89698  -10.16950
H    -10.89998   -0.05131  -10.45964
H     -5.33153   -1.95760  -11.48364
H     -6.54173   -1.43891  -12.65882
H     -5.15694   -0.38993  -12.29505
H     -5.27626   -7.34351   -6.27065
H     -5.04157   -7.08489   -8.01654
H     -6.65491   -6.91004   -7.29506
H     -9.00151   -1.05301  -11.75110
H     -9.54590   -2.16400  -10.49164
H     -7.20471    0.46771  -11.15851
H     -6.02842   -0.02291   -9.96528
H      1.52698   -4.51421   -5.82918
H     -5.44329   -1.94567   -9.23156
