29   

C        3.0827048431   -2.8217950306    0.6819691186
C        2.4556984726   -1.6310074475    0.3063264130
C        2.8673682638   -3.3459260189    1.9592435916
C        1.6121906856   -0.9684389154    1.2051977549
C        2.0308344283   -2.6772750591    2.8600176440
C       -0.1577466513   -4.4163162287    5.7023327429
C       -0.0377643648   -5.6847759596    5.1287167632
C       -1.3789162384   -3.6781677327    3.7571558240
C        1.3909331718   -1.4815425091    2.4939293585
C       -0.8177612046   -3.3955092113    5.0108856598
C       -0.5735526865   -5.9593806526    3.8638658968
C       -1.2571988253   -4.9434954301    3.1715100218
C        0.5091501165   -0.7873169015    3.4275816395
C        0.3878060838   -0.8933446838    4.8032310948
O       -2.2147203335   -1.0958466212    5.3467307629
O       -0.6358623304   -1.7070649378    7.1429248069
S       -0.9261336337   -1.7117408648    5.7003690675
Cl      -0.3814045354   -7.5553178695    3.1717083163
Cl      -1.9480792623   -5.2292153986    1.5886843327
H        3.7341604633   -3.3369845582   -0.0152444548
H        2.6234522647   -1.2193513606   -0.6826451667
H        3.3486840415   -4.2719287549    2.2528680190
H        1.1351179202   -0.0447317897    0.8964753795
H        1.8739891857   -3.0979899909    3.8466374608
H        0.2668465027   -4.2216926807    6.6844571547
H        0.4794970842   -6.4709224666    5.6661343487
H       -1.9104923040   -2.9003101353    3.2159664912
H       -0.1567197394   -0.0574456518    2.9776263651
H        1.1756029577   -0.5073943374    5.4304776991
29   

C        2.8590989305   -3.1018709392    0.8812190305
C        2.1717220246   -1.9876129512    0.3940685583
C        2.8006765488   -3.4115596613    2.2421171409
C        1.4214278982   -1.1898075521    1.2652014053
C        2.0565927793   -2.6081297577    3.1130893294
C       -0.0688329669   -4.3959113368    5.5514002040
C        0.1165863604   -5.6109790236    4.8865662544
C       -1.2398888131   -3.5466504651    3.6210023541
C        1.3501342919   -1.4909951026    2.6357523453
C       -0.7338047682   -3.3440528492    4.9132752256
C       -0.3570748054   -5.8005201917    3.5818460977
C       -1.0493384217   -4.7559336636    2.9432815571
C        0.5415697750   -0.6668667387    3.5329816962
C        0.3628656861   -0.7591282830    4.8918645275
O       -2.2272563296   -1.1359438622    5.4094051422
O       -0.6265092475   -1.8002068976    7.1584496203
S       -0.9112073709   -1.7173103522    5.7170195953
Cl      -0.0762984034   -7.3270235990    2.7733971967
Cl      -1.6611621254   -4.9340068639    1.3129150356
H        3.4361488213   -3.7235042859    0.2055815132
H        2.2177133464   -1.7422148865   -0.6610800617
H        3.3314652790   -4.2762490181    2.6239585861
H        0.8911589719   -0.3322837936    0.8658585601
H        2.0251468915   -2.8634925819    4.1657684221
H        0.3117836207   -4.2653245275    6.5616814860
H        0.6393449921   -6.4205059067    5.3821268499
H       -1.7747156595   -2.7452628831    3.1191706935
H        0.0258640989    0.1667501098    3.0667186135
H        0.9931163550   -0.1870391379    5.5544737806
29   

C        2.7120396683   -3.3434104855    1.1798159459
C        1.8927290993   -2.3836240243    0.5806432588
C        2.8500473262   -3.3665554212    2.5695491123
C        1.2056683090   -1.4550964311    1.3707150198
C        2.1641115189   -2.4362388588    3.3579078136
C        0.0649067681   -4.3430065201    5.2749173751
C        0.2755085069   -5.4850209695    4.4977016880
C       -1.2184134622   -3.3827357438    3.4726390136
C        1.3233561206   -1.4752888117    2.7703028578
C       -0.6666411819   -3.2694198687    4.7570593633
C       -0.2374063674   -5.5786680106    3.1975274368
C       -1.0001192969   -4.5158445809    2.6811914179
C        0.5569883417   -0.5315974344    3.5915111066
C        0.3097579057   -0.6052979790    4.9287815607
O       -2.2253329215   -1.1870369487    5.5220829355
O       -0.5132978689   -1.9181663001    7.1198084210
S       -0.8679583327   -1.7244330323    5.7045950168
Cl       0.0841353696   -7.0092521258    2.2423606829
Cl      -1.6615977767   -4.5743662740    1.0616112272
H        3.2391378289   -4.0672981081    0.5682625658
H        1.7849908888   -2.3621267438   -0.4980351924
H        3.4863692098   -4.1084519090    3.0382940253
H        0.5665250653   -0.7246081207    0.8872358762
H        2.2813445303   -2.4697902550    4.4351240299
H        0.4803397479   -4.2839087232    6.2779697427
H        0.8518539559   -6.3097895287    4.8994500744
H       -1.8061077650   -2.5654821633    3.0648747382
H        0.1763034710    0.3500544743    3.0856370758
H        0.7146409409    0.1417675620    5.5935947256
29   

C        2.6383016414   -3.4113027192    1.2928396526
C        1.8111835623   -2.4788591744    0.6619231929
C        2.8051252945   -3.3638756269    2.6789177600
C        1.1445327762   -1.5075812247    1.4172656965
C        2.1382457956   -2.3917045004    3.4325745728
C        0.0749194987   -4.3635833132    5.1654982026
C        0.2886699130   -5.4891595371    4.3660498014
C       -1.2221356868   -3.3755127541    3.3883755584
C        1.2882190430   -1.4597054698    2.8135285382
C       -0.6651212149   -3.2838759470    4.6721010547
C       -0.2293441422   -5.5605690893    3.0667656260
C       -1.0002496987   -4.4921688750    2.5742260321
C        0.5491190935   -0.4630326373    3.6015159598
C        0.1777163589   -0.5370859577    4.9009296734
O       -2.2813192586   -1.3051967230    5.5729190400
O       -0.4672480059   -1.9894255475    7.0582292253
S       -0.8888016516   -1.7705383933    5.6650201126
Cl       0.0950965609   -6.9714555120    2.0837319769
Cl      -1.6694891556   -4.5246764909    0.9571765433
H        3.1496858787   -4.1681472126    0.7084533813
H        1.6818942330   -2.5115667168   -0.4141063442
H        3.4489512900   -4.0832740139    3.1718086467
H        0.4999386034   -0.7976360030    0.9109439062
H        2.2775496601   -2.3676747218    4.5076450019
H        0.4922289151   -4.3230390435    6.1687083913
H        0.8704021224   -6.3184192202    4.7503766336
H       -1.8184261026   -2.5550940907    3.0003667457
H        0.3117589186    0.4650471174    3.0911459584
H        0.3754904846    0.3024130836    5.5495065036
29   

C        3.1676531445   -3.5334478701    1.9163664889
C        2.1351419176   -3.0602717403    1.1019327583
C        3.3175372489   -3.0282777814    3.2105762535
C        1.2538618411   -2.0843860393    1.5812759664
C        2.4326679364   -2.0566279881    3.6904245419
C        0.1842545778   -4.2671235506    4.4960793729
C        0.0636633301   -5.2718847406    3.5353387796
C       -1.7897342133   -3.2031812185    3.6097808267
C        1.3863902772   -1.5765131221    2.8832335265
C       -0.7305658530   -3.2087665244    4.5275260063
C       -0.9714913307   -5.2471565629    2.5941901548
C       -1.9149854186   -4.2036196164    2.6368376168
C        0.4412454624   -0.5694488990    3.3935683275
C        0.0186328725   -0.4506164304    4.6670491825
O       -1.7868693967   -1.4782331880    6.3419811834
O        0.5429030819   -2.1440248922    6.6846092138
S       -0.5093428163   -1.8299401467    5.7032337407
Cl      -1.0656343301   -6.5071855540    1.3833768925
Cl      -3.2294615304   -4.1239199190    1.4840740076
H        3.8518786651   -4.2879178963    1.5442502536
H        2.0152194825   -3.4510183192    0.0976638402
H        4.1200833729   -3.3872473065    3.8452848047
H        0.4535409070   -1.7334975163    0.9392929332
H        2.5618599243   -1.6742528404    4.6983244972
H        1.0067358372   -4.2957298587    5.2064203327
H        0.7894621160   -6.0757902479    3.5080136865
H       -2.5197429532   -2.3994827521    3.6348208586
H        0.0786710642    0.1633538771    2.6798958942
H       -0.2215775229    0.5206659518    5.0713946221
29   

C        3.1551138886   -3.5512172188    1.9809274966
C        2.1284343695   -3.0786106764    1.1586996834
C        3.3188510403   -3.0182458406    3.2623901486
C        1.2672544685   -2.0753491270    1.6175785633
C        2.4534053893   -2.0195401451    3.7218741582
C        0.1933183660   -4.2720031882    4.4212789986
C        0.0500237715   -5.2761041276    3.4631434888
C       -1.7967684794   -3.2031888329    3.5784993786
C        1.4135482124   -1.5401628956    2.9068730432
C       -0.7192058813   -3.2124675834    4.4743682643
C       -1.0055571070   -5.2492266674    2.5451857365
C       -1.9451853749   -4.2031709919    2.6081466119
C        0.4914195913   -0.4965766593    3.3940130478
C       -0.0667401049   -0.4280106557    4.6129763685
O       -1.7228734223   -1.5482883270    6.3760136779
O        0.6447351104   -2.1316454706    6.5668176326
S       -0.4748764917   -1.8412608197    5.6546260127
Cl      -1.1298621202   -6.5100421948    1.3378931081
Cl      -3.2846556142   -4.1209241253    1.4847006680
H        3.8242427197   -4.3265518696    1.6246102832
H        1.9975504508   -3.4905813490    0.1643336409
H        4.1169974249   -3.3762462615    3.9031897712
H        0.4714563968   -1.7236155258    0.9704336748
H        2.5929450383   -1.6145664836    4.7195791666
H        1.0308233863   -4.3028939040    5.1137443988
H        0.7733929507   -6.0815168473    3.4203923105
H       -2.5245557319   -2.3982667381    3.6195231217
H        0.2407954977    0.2911469386    2.6908108948
H       -0.4494873930    0.5116062075    4.9809203766
29   

C        3.1275703034   -3.5690443103    2.0181392758
C        2.1015506525   -3.0810848884    1.2039975984
C        3.3176130266   -3.0296184285    3.2934435956
C        1.2679206014   -2.0557160533    1.6647058789
C        2.4790503246   -2.0088796659    3.7547726852
C        0.2037248277   -4.2808615999    4.4061138112
C        0.0622496786   -5.2909242730    3.4539539968
C       -1.7950331862   -3.2273269198    3.5650727966
C        1.4412729649   -1.5138681593    2.9476182170
C       -0.7149038186   -3.2266637183    4.4578236440
C       -0.9970583559   -5.2748655987    2.5400534708
C       -1.9417388654   -4.2332630560    2.6006280373
C        0.5488647022   -0.4412576017    3.4356859218
C       -0.1477296657   -0.4286973687    4.5801756972
O       -1.7123647946   -1.5977884419    6.3909872400
O        0.6770392695   -2.1087502844    6.5122635797
S       -0.4769931785   -1.8506471920    5.6335721607
Cl      -1.1197394202   -6.5434323517    1.3407297334
Cl      -3.2859664153   -4.1643020867    1.4819386639
H        3.7756165129   -4.3613896890    1.6603123787
H        1.9497809835   -3.4979754556    0.2146620273
H        4.1151234351   -3.3997790280    3.9280736422
H        0.4723563539   -1.6907651909    1.0246055268
H        2.6372067241   -1.5986712343    4.7475564658
H        1.0439226788   -4.3033900802    5.0955945255
H        0.7897334670   -6.0926842782    3.4129564573
H       -2.5268605169   -2.4260524755    3.6041098833
H        0.4154370429    0.4061063336    2.7708528511
H       -0.6436405598    0.4749349499    4.9001029810
29   

C        1.9929484343   -3.0252089628    0.8731623745
C        1.0931239445   -1.9558386999    0.8726447716
C        2.7099037469   -3.3288226362    2.0337772866
C        0.9060672070   -1.1967750419    2.0332303811
C        2.5258375103   -2.5648080442    3.1917491493
C       -0.2611932553   -3.9911366540    5.4253913731
C        0.1592809832   -5.2871395520    5.1152567438
C       -0.9294649627   -3.6838766737    3.1295090812
C        1.6157291648   -1.4970033359    3.2072990660
C       -0.7924956750   -3.1691192526    4.4270575987
C        0.0484644538   -5.7902069339    3.8127780393
C       -0.5110366822   -4.9802640620    2.8086182142
C        1.4060280251   -0.7056417971    4.4417799888
C        0.2770703249   -0.6177839738    5.1553639018
O       -1.9174140963   -0.8275141431    3.6143767804
O       -2.1290482396   -1.3929741361    5.9856425450
S       -1.2765517802   -1.4461422823    4.7877277856
Cl       0.6084503688   -7.4105948863    3.4612409489
Cl      -0.6806454397   -5.5581462165    1.1647344583
H        2.1322356908   -3.6191957370   -0.0233486371
H        0.5353466863   -1.7155227779   -0.0256407614
H        3.4057906621   -4.1601611295    2.0375006319
H        0.2001165112   -0.3718902648    2.0222264037
H        3.0830071828   -2.8146411903    4.0875955717
H       -0.1654020045   -3.6185491252    6.4415555995
H        0.5815534484   -5.9155666949    5.8902908712
H       -1.3527750312   -3.0623487669    2.3454079376
H        2.2841187038   -0.2118136402    4.8453191788
H        0.2489744452   -0.0137685837    6.0492724939
29   

C        2.0058630878   -3.0173963980    0.8419777252
C        1.0975267902   -1.9562372794    0.8807569595
C        2.7353989955   -3.3488566598    1.9869345703
C        0.9136292180   -1.2340935806    2.0649772954
C        2.5541654136   -2.6220951632    3.1691702857
C       -0.2803947727   -3.9695852320    5.4410528359
C        0.1474802495   -5.2670967710    5.1477143422
C       -0.9390195528   -3.6917445751    3.1385408875
C        1.6336162947   -1.5642902764    3.2254498053
C       -0.8098095456   -3.1612049678    4.4306054834
C        0.0462048510   -5.7851264375    3.8502993939
C       -0.5121499836   -4.9893087485    2.8342851812
C        1.4256990953   -0.8172853644    4.4828525855
C        0.2570139186   -0.5880982184    5.0975551352
O       -1.9577061155   -0.8389866953    3.5931108149
O       -2.1332710900   -1.3617553840    5.9757346562
S       -1.2969987932   -1.4340557103    4.7674585603
Cl       0.6168224145   -7.4061875158    3.5195946363
Cl      -0.6688945555   -5.5856070329    1.1957553171
H        2.1428611943   -3.5826636856   -0.0732564358
H        0.5310691347   -1.6929863739   -0.0056155882
H        3.4390571999   -4.1731880725    1.9595181194
H        0.2028571678   -0.4135115034    2.0812665373
H        3.1215928133   -2.8949495428    4.0517409102
H       -0.1910994525   -3.5848021952    6.4532935375
H        0.5687407125   -5.8848175319    5.9318563642
H       -1.3611639139   -3.0812337215    2.3451782160
H        2.3212951109   -0.4531478103    4.9758505332
H        0.2095894804    0.1021392081    5.9258450002
29   

C        2.0454094970   -3.0038595129    0.8246831581
C        1.1179298741   -1.9605907470    0.8843947034
C        2.7789375624   -3.3465276762    1.9637125980
C        0.9186827548   -1.2678467986    2.0834542187
C        2.5821025484   -2.6495553593    3.1613537326
C       -0.2970640250   -3.9445767318    5.4543958976
C        0.1417080732   -5.2390982535    5.1638122788
C       -0.9605215104   -3.6784262499    3.1517638396
C        1.6419007246   -1.6102842881    3.2391436890
C       -0.8334330283   -3.1430312427    4.4421129360
C        0.0447857171   -5.7607903776    3.8674838199
C       -0.5216130747   -4.9724851939    2.8500783769
C        1.4140846867   -0.9000541771    4.5103590949
C        0.2256777130   -0.5425296280    5.0241797964
O       -2.0413547490   -0.8477046989    3.6165108967
O       -2.1177149963   -1.3336658747    6.0120097888
S       -1.3288064744   -1.4169174453    4.7729807657
Cl       0.6309742820   -7.3768867745    3.5397624883
Cl      -0.6725162461   -5.5731177297    1.2126177591
H        2.1945085701   -3.5462220697   -0.1024382242
H        0.5487019338   -1.6883361970    0.0025162964
H        3.4979498237   -4.1567675512    1.9195983810
H        0.1931066446   -0.4607466360    2.1143020688
H        3.1529869504   -2.9324948877    4.0384789443
H       -0.2103420351   -3.5563310901    6.4656019182
H        0.5687727178   -5.8513886805    5.9490725439
H       -1.3888411348   -3.0737929964    2.3571794409
H        2.2985535727   -0.6430879272    5.0842728449
H        0.1707681189    0.2408733420    5.7644162914
29   

C        2.1004476708   -3.0168033767    0.8191621111
C        1.1511953692   -1.9935843091    0.8806695824
C        2.8271052908   -3.3591251889    1.9626372659
C        0.9235544364   -1.3204563334    2.0857356973
C        2.6015169060   -2.6822802332    3.1667846001
C       -0.3174012496   -3.9387879290    5.4486793267
C        0.1291736726   -5.2253720914    5.1359241046
C       -1.0182659943   -3.6512985865    3.1595513567
C        1.6397857365   -1.6628277964    3.2464335943
C       -0.8752059384   -3.1298660378    4.4538737607
C        0.0191234985   -5.7316860694    3.8345594264
C       -0.5704269745   -4.9368802345    2.8354415247
C        1.3773105948   -0.9788394459    4.5233383938
C        0.1853130969   -0.5072739618    4.9364785143
O       -2.1748751551   -0.8581562752    3.7068385972
O       -2.0681476063   -1.3279588459    6.1051949596
S       -1.3724491886   -1.4097516955    4.8113919302
Cl       0.6184258150   -7.3367774159    3.4778668437
Cl      -0.7375874713   -5.5181422970    1.1926348908
H        2.2717650687   -3.5438061882   -0.1129603397
H        0.5872053099   -1.7220403773   -0.0047744082
H        3.5631849610   -4.1537915100    1.9167935739
H        0.1804401426   -0.5295546148    2.1172234135
H        3.1674066626   -2.9662139540    4.0467896084
H       -0.2192972964   -3.5616009380    6.4631335001
H        0.5735375592   -5.8429859801    5.9073018577
H       -1.4642940988   -3.0412595768    2.3789569846
H        2.2311490324   -0.8112291422    5.1718000059
H        0.1349994851    0.3730771191    5.5585576936
29   

C        2.2159780871   -3.0960856334    0.8618807438
C        1.2201702705   -2.1165762091    0.8824376508
C        2.9349116127   -3.3793580918    2.0261253982
C        0.9388778306   -1.4281453121    2.0673495926
C        2.6543537235   -2.6882266671    3.2104897100
C       -0.2940557119   -3.9445781717    5.4073745809
C        0.1525160546   -5.2094927246    5.0174020011
C       -1.1472602466   -3.5834608605    3.1810103170
C        1.6462131362   -1.7119363057    3.2490636939
C       -0.9270376299   -3.1086881341    4.4819887635
C       -0.0313511239   -5.6672610442    3.7066237244
C       -0.6984029647   -4.8469171267    2.7790822789
C        1.3243839411   -1.0170007913    4.5043598840
C        0.1282838398   -0.4729685229    4.8271813230
O       -2.3860009112   -0.8648593774    3.9773421005
O       -1.8971338416   -1.3594641782    6.3247350553
S       -1.4112127850   -1.4088173065    4.9367836589
Cl       0.5745731305   -7.2440752267    3.2493348604
Cl      -0.9582563122   -5.3679160145    1.1282614199
H        2.4296001285   -3.6344761825   -0.0548630340
H        0.6620684651   -1.8915298279   -0.0195615369
H        3.7080621593   -4.1392423525    2.0116438557
H        0.1606885075   -0.6715888333    2.0670688315
H        3.2155624316   -2.9270601374    4.1067180013
H       -0.1357972590   -3.6033060881    6.4271000055
H        0.6562824938   -5.8467572458    5.7343789471
H       -1.6530782443   -2.9524067928    2.4556182472
H        2.1360047541   -0.8841855280    5.2123540230
H        0.0776217216    0.5152131996    5.2575348761
29   

C        2.6769508980   -3.3423016284    1.2095418019
C        1.4367156682   -2.7072573967    1.1136436029
C        3.4648329301   -3.1557182789    2.3481377779
C        0.9840441098   -1.8921460370    2.1566431305
C        3.0073278614   -2.3449950052    3.3934462155
C       -0.1473053606   -3.9494782273    4.9855035025
C        0.1562912919   -5.1446145187    4.3320069815
C       -1.7287830272   -3.4167012148    3.2438765745
C        1.7560300269   -1.7111318615    3.3170730880
C       -1.0746670882   -3.0604198044    4.4313766454
C       -0.4659159966   -5.4830349994    3.1249701744
C       -1.4286389017   -4.6132561082    2.5794578110
C        1.2673555624   -0.8976570741    4.4350585254
C        0.0007845896   -0.4420834512    4.6481393599
O       -2.6472965867   -0.8558690352    4.7481416408
O       -1.3129639070   -1.5648062441    6.6815699252
S       -1.3825302856   -1.4441575034    5.2166551981
Cl      -0.0303237828   -6.9743845781    2.3196023029
Cl      -2.2405140786   -4.9904726637    1.0758091906
H        3.0269948659   -3.9755226136    0.4017953442
H        0.8223730273   -2.8475283420    0.2312548131
H        4.4307046728   -3.6426796991    2.4224000691
H        0.0209666605   -1.4034586742    2.0621894760
H        3.6298171622   -2.2185364988    4.2722258422
H        0.3543526192   -3.6998278970    5.9168017463
H        0.8921645413   -5.8169385124    4.7567558404
H       -2.4689937567   -2.7470121303    2.8145630368
H        2.0120095683   -0.5756557986    5.1559987100
H       -0.2002005057    0.6177668203    4.6288637152
29   

C        3.0106099396   -3.2112023978    1.1642685132
C        1.6684285170   -2.8281281817    1.1084067174
C        3.7865683811   -2.8578722245    2.2710477916
C        1.1046980615   -2.0933531586    2.1570350076
C        3.2185881969   -2.1300534605    3.3230281740
C       -0.2837918514   -3.9985079726    4.9701359463
C       -0.1003243214   -5.2144147833    4.3105044991
C       -1.9591203359   -3.3868318561    3.3459312393
C        1.8688635228   -1.7415967136    3.2828036226
C       -1.2007500133   -3.0626485068    4.4792517690
C       -0.8324450648   -5.5261970063    3.1592910470
C       -1.7799085255   -4.6043585663    2.6756107221
C        1.2769913305   -1.0028857039    4.3975854594
C       -0.0020855130   -0.5246148487    4.5430945662
O       -2.6424675604   -0.7913246213    4.9279902264
O       -1.1428569821   -1.5483860658    6.7284070898
S       -1.3654795570   -1.4326158144    5.2783610517
Cl      -0.5520614991   -7.0505771801    2.3465864599
Cl      -2.7258158330   -4.9465756460    1.2435774379
H        3.4485163808   -3.7786967547    0.3505343072
H        1.0618545783   -3.0998948832    0.2516981886
H        4.8300763757   -3.1491090512    2.3150473006
H        0.0634005726   -1.8006211268    2.0918681732
H        3.8368556851   -1.8688784600    4.1747704123
H        0.2999709894   -3.7726740455    5.8589012657
H        0.6248554502   -5.9257147523    4.6879869228
H       -2.6910842418   -2.6788611013    2.9663926869
H        1.9466457432   -0.7687173372    5.2190462090
H       -0.2404918672    0.4817935139    4.2367297061
29   

C        3.4365497100   -2.9928038110    1.0959569927
C        2.0396926258   -2.9561617027    1.1021485864
C        4.1498840000   -2.4219658546    2.1532215615
C        1.3587969891   -2.3449748309    2.1608974889
C        3.4670169482   -1.8190121459    3.2157367014
C       -0.4924776379   -4.1049136368    4.9853552817
C       -0.4781491092   -5.3502586462    4.3554562013
C       -2.1911715436   -3.3611436189    3.4421975111
C        2.0632571542   -1.7704198418    3.2319095748
C       -1.3390600329   -3.0920182445    4.5221497391
C       -1.3103769996   -5.6133120482    3.2612307818
C       -2.1821905282   -4.6078719423    2.8023958495
C        1.3546585436   -1.1353721192    4.3402092845
C        0.0527815110   -0.6746322947    4.4313703258
O       -2.5565963207   -0.7083191537    5.0328806788
O       -0.9771576792   -1.5576862440    6.7277626007
S       -1.3104751745   -1.4436780373    5.2988724073
Cl      -1.2485627840   -7.1827874210    2.4891527729
Cl      -3.2480245024   -4.8858738648    1.4422996397
H        3.9649967546   -3.4610326002    0.2728637115
H        1.4818954548   -3.4003393398    0.2852780254
H        5.2339436142   -2.4440029979    2.1491682883
H        0.2751169661   -2.3243077644    2.1487340293
H        4.0373184824   -1.3780619128    4.0259559887
H        0.1622243332   -3.9208017096    5.8336404882
H        0.1884842202   -6.1256848707    4.7145732241
H       -2.8694344695   -2.5905761817    3.0850993476
H        1.9435379030   -0.9850998260    5.2396580644
H       -0.2252266219    0.2108098729    3.8819139286
