31

C      4.28105    0.19384    2.13942
C      3.38725   -0.85509    1.89963
C      4.75419    0.97843    1.08441
C      3.42939   -0.36161   -0.46713
C      2.95094   -1.13730    0.59879
C      4.31524    0.67457   -0.20180
C      0.83558   -1.81964   -0.62401
C     -1.12823   -0.51212   -1.15285
C     -0.11084   -0.27414    1.12575
C     -0.63978    0.38033   -2.29915
C      0.47972    1.14116    1.17685
C      1.95252   -2.24617    0.33005
N     -0.09739   -0.91338   -0.19127
O      0.79230   -2.27753   -1.76952
F      4.76543    1.42613   -1.23700
S      0.46161    1.76254   -1.78212
S     -0.33031    2.35459    0.05785
H      4.60782    0.40636    3.15367
H      3.01991   -1.45045    2.73211
H      5.44218    1.80311    1.24194
H      3.10189   -0.53967   -1.48664
H     -1.90383    0.01276   -0.59385
H     -1.56906   -1.41038   -1.59601
H      0.43612   -0.89784    1.83479
H     -1.14998   -0.24351    1.47044
H     -0.03144   -0.20000   -2.99656
H     -1.50912    0.77877   -2.82989
H      0.34447    1.54285    2.18796
H      1.54524    1.13689    0.95146
H      2.44386   -3.08374   -0.17119
H      1.54617   -2.62370    1.27329
