15

C      0.25977    1.44675    0.50807
C      0.03957    0.41995   -0.32011
C      0.85133   -0.84627   -0.32808
O      1.06814   -1.47065   -1.35209
O      0.17218    2.33445   -2.75143
O      1.36494   -1.26712    0.84384
O     -2.03318    1.13114   -3.45299
O      0.05714   -0.18421   -3.56560
O     -0.92223    0.45866   -1.30534
P     -0.56868    1.05931   -2.80738
H     -0.29673    2.37069    0.39567
H      1.02818    1.40926    1.27388
H      0.98133   -0.75763    1.57855
H     -2.34380    2.05114   -3.50500
H      0.49811   -0.81503   -2.94303
