15

C      1.23332    0.89428   -0.18902
C      0.25753   -0.00545   -0.30572
C      0.14564   -1.21771    0.58016
O      0.94156   -1.45736    1.45986
O      0.31923    1.42422   -3.23851
O     -0.91106   -2.02156    0.32778
O     -1.98797    0.19685   -3.39484
O      0.09795   -1.19168   -3.15436
O     -0.79668    0.09967   -1.23649
P     -0.49110    0.26408   -2.82199
H      1.29469    1.76021   -0.83891
H      1.98786    0.73248    0.57237
H     -1.42214   -1.65278   -0.41756
H     -2.31386    1.07480   -3.65882
H      0.73536   -1.17844   -3.88906
