15

C      1.32942    1.12195   -0.71210
C      0.24298    0.37952   -0.47509
C      0.14157   -0.66121    0.60575
O     -0.91711   -0.94205    1.13987
O     -1.61063    2.68922    0.13685
O      1.27647   -1.27645    0.99268
O     -3.08629    0.47553    0.16992
O     -2.97766    1.84169   -1.89978
O     -0.92494    0.55760   -1.18453
P     -2.13309    1.51908   -0.58200
H      1.29753    1.91483   -1.45153
H      2.25017    0.99251   -0.15210
H      2.00213   -1.05795    0.38307
H     -2.55003   -0.14593    0.71904
H     -3.57423    1.11777   -2.15766
