18

C      0.29814   -0.54125   -1.23867
C     -0.14965    0.09925    0.78078
C      0.61886    0.97151   -1.15200
C      0.62686    2.48847    0.91340
N     -0.15570   -0.96496    0.01683
N      0.19527    1.29208    0.21072
N     -0.48593    0.02726    2.11803
O      0.43495   -1.21725   -2.23831
O     -2.34092   -1.96639    2.34438
P     -1.08266   -1.39323    2.83746
Cl    -1.17944   -0.67087    4.77002
Cl     0.49129   -2.68275    2.88884
H      1.69151    1.14339   -1.29682
H      0.05790    1.53970   -1.89890
H      1.63570    2.38783    1.33696
H     -0.07569    2.74480    1.71252
H      0.62554    3.32577    0.21289
H     -0.41557    0.85589    2.69658
