31

C      1.79096   -5.24473    1.40587
C      2.00819   -3.86420    1.34413
C      1.51073   -5.97157    0.24640
C      1.67578   -3.90884   -1.05138
C      1.95260   -3.18608    0.11864
C      1.46010   -5.27807   -0.95997
C      1.21476   -0.97251   -0.87447
C     -0.95976    0.00280   -1.29299
C     -0.51607   -1.06327    0.93501
C     -0.59549    1.47756   -1.51092
C     -0.37562    0.07352    1.95250
C      2.20237   -1.69051    0.04431
N     -0.05182   -0.73427   -0.41229
O      1.54941   -0.64931   -2.01759
F      1.18904   -5.97038   -2.09647
S     -0.05755    2.37328    0.00438
S     -1.29209    1.60600    1.50594
H      1.83886   -5.75837    2.36218
H      2.22711   -3.31208    2.25518
H      1.33563   -7.04271    0.26447
H      1.62806   -3.41645   -2.01852
H     -1.95654   -0.06123   -0.85524
H     -0.98128   -0.48398   -2.27295
H      0.02011   -1.94232    1.29783
H     -1.56808   -1.35576    0.86304
H      0.26328    1.56040   -2.18127
H     -1.45037    1.99146   -1.95896
H     -0.79401   -0.24730    2.91384
H      0.67221    0.34362    2.10600
H      2.19972   -1.26075    1.04961
H      3.18672   -1.49939   -0.39036
