38

C      2.24574   -0.57752   -0.09406
C      2.67645   -1.97046    1.82069
C      1.17550    0.02302    0.57230
C      1.60429   -1.38990    2.49603
C     -2.20314    0.98083    3.25554
C      3.01343   -1.58024    0.51458
C      0.85026   -0.39639    1.86396
C     -1.21800    1.05806    4.28943
C     -1.51816    0.41221    2.17759
C     -6.79371    1.30712    1.94771
C     -6.20591    2.84049    3.40442
C     -3.57715    1.40524    3.37912
C      4.19272   -2.20060   -0.19712
C     -1.38208    1.59602    5.67782
C     -6.70708    0.17054    0.99022
N     -0.04715    0.58510    3.87845
N     -7.87010    1.97670    2.28534
N     -7.49777    2.95457    3.20346
N     -4.42151    1.32276    2.40671
N     -0.23495    0.19636    2.57475
N     -5.69912    1.79782    2.64071
S     -5.23838    3.93802    4.39231
Cl    -2.11137   -0.04719    0.63538
H      2.49182   -0.24906   -1.10092
H      3.25773   -2.74513    2.31549
H      0.60905    0.81490    0.09415
H      1.34734   -1.69176    3.50596
H     -3.86015    1.78499    4.36412
H      5.12897   -1.71718    0.10671
H      4.28427   -3.26556    0.03680
H      4.10519   -2.09744   -1.28219
H     -2.13396    1.03066    6.23885
H     -0.43102    1.52861    6.20974
H     -1.69849    2.64430    5.66314
H     -5.97897    0.37996    0.20095
H     -6.39085   -0.74930    1.49250
H     -7.69225    0.01605    0.54763
H     -6.24618    4.82853    4.49156
