38

C      1.89079   -1.46980   -0.02995
C      2.57542   -1.89257    2.23830
C      0.88357   -0.61592    0.42400
C      1.56711   -1.05349    2.70968
C     -2.20852    1.49385    2.77127
C      2.75274   -2.12040    0.86415
C      0.71711   -0.42158    1.79702
C     -1.12328    1.98935    3.56580
C     -1.62181    0.50227    1.98314
C     -6.54660    2.30437    3.19677
C     -5.90892    4.30534    3.85492
C     -3.60040    1.86922    2.74635
C      3.86553   -3.01160    0.36487
C     -1.14688    3.07554    4.59221
C     -6.57601    0.85472    2.84237
N      0.00672    1.35432    3.27626
N     -7.61383    3.04191    3.38727
N     -7.21687    4.31291    3.79100
N     -4.06131    2.78534    3.53166
N     -0.30150    0.44366    2.29407
N     -5.41061    3.07160    3.46750
S     -4.91584    5.68023    4.31791
Cl    -2.38772   -0.56102    0.86408
H      2.01349   -1.61967   -1.09984
H      3.23236   -2.38399    2.95216
H      0.24505   -0.09943   -0.28482
H      1.43383   -0.87774    3.77194
H     -4.23145    1.34678    2.02719
H      4.80435   -2.45111    0.28107
H      4.04380   -3.84765    1.04759
H      3.63749   -3.42183   -0.62281
H     -1.89781    2.87076    5.36046
H     -0.16186    3.16391    5.05543
H     -1.41061    4.03402    4.13320
H     -6.30895    0.66965    1.79620
H     -5.90197    0.26863    3.47575
H     -7.59700    0.50109    2.99666
H     -3.77464    4.96022    4.35685
