34

C      0.18729    2.78451    1.71794
C      1.52139    2.86549    1.11446
C     -0.36572    1.59655    2.02257
C      2.13602    1.76262    0.65696
C     -1.00022   -1.58596   -1.09377
C      3.21518   -0.91831    1.74473
C     -0.55762   -0.83553    1.26361
C      0.56110    0.25134   -0.60828
C      0.35813    0.29152    1.78438
C      1.42522    0.43031    0.66142
C     -2.49141   -3.39621   -1.35000
C      4.82802   -2.42154    2.58871
N     -0.42158   -0.74734   -0.19637
N      2.37090   -0.68964    0.69681
O     -0.81250   -1.56203   -2.30484
O      3.37167   -0.18655    2.71056
O     -1.82729   -2.47402   -0.46657
O      3.88195   -2.09490    1.55399
H     -0.33843    3.70726    1.95140
H      2.01256    3.83326    1.05285
H     -1.33007    1.55004    2.52500
H      3.12943    1.79567    0.21880
H     -0.22486   -1.81702    1.61703
H     -1.59755   -0.70363    1.57385
H      0.08197    1.20052   -0.86554
H      1.13029   -0.09256   -1.47439
H      0.83196   -0.01333    2.72413
H     -3.10346   -4.02525   -0.70284
H     -1.76301   -4.00142   -1.89487
H     -3.11778   -2.85937   -2.06636
H      5.26489   -3.37465    2.28976
H      4.32563   -2.51648    3.55438
H      5.60047   -1.65209    2.66020
H      2.27032   -1.43636    0.02108
