34

C      1.86814    2.94384   -0.20249
C      0.58541    2.99656   -0.91048
C      2.40675    1.75510    0.12700
C      0.04089    1.89924   -1.46807
C     -1.12569   -1.57150    0.89771
C      2.30498   -0.57939   -3.05227
C      0.70047    0.06472    0.93403
C     -0.22901   -0.60682   -1.22839
C      1.68040    0.47819   -0.18799
C      0.76124    0.56325   -1.43738
C     -2.83218   -3.18463    0.67376
C      3.84144   -1.32367   -4.68239
N     -0.31628   -0.71545    0.22635
N      1.46642    0.44821   -2.72225
O     -1.13958   -1.71836    2.11455
O      2.46297   -1.61560   -2.42093
O     -1.94017   -2.25354    0.03656
O      2.94884   -0.29262   -4.22001
H      2.36032    3.87573    0.06372
H      0.07131    3.95227   -0.98674
H      3.34864    1.69948    0.66749
H     -0.90242    1.95105   -2.00715
H      1.17743   -0.53801    1.70966
H      0.25277    0.94303    1.41142
H     -1.20420   -0.39491   -1.67397
H      0.16558   -1.52497   -1.66904
H      2.38443   -0.34062   -0.35019
H     -3.40401   -3.63774   -0.13695
H     -3.49754   -2.66777    1.36968
H     -2.26956   -3.94751    1.21728
H      4.26724   -0.94101   -5.61018
H      3.29447   -2.25145   -4.86604
H      4.62839   -1.50965   -3.94765
H      1.57350    1.29770   -3.26201
