40

C      1.94731    3.05212   -2.72059
C      1.11078    1.93830   -2.74197
C      2.88095    0.60089   -1.77409
C      5.15850    5.95069   -2.79830
C      4.07019    5.18271   -3.13332
C      3.26189    2.95446   -2.26255
C      1.57332    0.69459   -2.27834
C      3.72276    1.71584   -1.76734
C      5.25748    4.22457   -1.52052
C      0.92557   -1.65066   -1.72088
C     -2.67904   -4.30982   -4.10201
C      5.61653    3.20512   -0.49668
C     -0.64206   -0.33281   -2.86921
C     -1.10281   -1.79731   -2.82222
C     -2.91738   -5.78895   -3.86307
C     -1.02879   -2.49568   -4.18023
N      5.89320    5.34584   -1.79353
N      4.13340    4.06660   -2.30488
N      0.70794   -0.42107   -2.32525
N     -1.36587   -3.90459   -4.09289
O      1.89888   -2.03405   -1.11035
O     -3.60039   -3.52268   -4.31710
O     -0.17743   -2.43940   -1.91379
S      5.38902    1.51381   -1.17850
H      1.56466    4.00981   -3.05873
H      0.09748    2.05900   -3.10565
H      3.23670   -0.33959   -1.37590
H      5.46282    6.89576   -3.22884
H      3.30811    5.29774   -3.88887
H      6.66877    3.31340   -0.23146
H      5.01021    3.30398    0.40982
H     -0.63148    0.05193   -3.89400
H     -1.27420    0.32147   -2.25759
H     -2.10307   -1.90963   -2.40269
H     -3.60806   -5.90204   -3.02353
H     -3.40304   -6.21098   -4.74713
H     -2.00359   -6.35259   -3.65671
H     -0.01946   -2.39302   -4.59314
H     -1.73729   -2.02159   -4.86362
H     -0.66771   -4.52874   -3.71039
