41

C      2.52566   -0.59017   -0.87199
C     -4.29770    0.59043   -1.43600
C     -3.80161    1.90311    0.52421
C     -5.66232    0.65035   -1.14455
C     -5.16304    1.97458    0.83676
C     -2.49764   -2.62157   -3.59607
C     -1.80267   -0.68818   -4.05022
C     -3.35008    1.21526   -0.60986
C     -6.06909    1.34304   -0.00788
C      1.33690    1.48256   -0.39819
C      1.37968   -0.39775    1.27434
C     -1.87112    1.09972   -0.91184
C     -1.31480   -0.24841   -0.40341
C      0.17917   -0.66664   -2.44833
C      1.30146   -0.05450   -0.23261
C      0.06110   -0.75647   -0.90373
N      3.50624   -0.95449   -1.37998
N     -2.77127   -1.53735   -4.37506
N     -1.42585   -2.48896   -2.82015
N     -0.98646   -1.23248   -3.12080
O      0.18822   -2.12621   -0.51744
F     -7.39490    1.40740    0.28377
H     -3.97343    0.04993   -2.32222
H     -3.08280    2.39533    1.17577
H     -6.40201    0.17523   -1.78171
H     -5.52176    2.50803    1.71172
H     -3.09150   -3.52612   -3.59662
H     -1.65778    0.30482   -4.45633
H      0.57597    1.94658    0.23054
H      1.18461    1.80450   -1.43107
H      2.30975    1.86041   -0.07442
H      0.52886    0.03834    1.80417
H      1.37932   -1.47583    1.42940
H      2.29455    0.02499    1.69832
H     -1.34657    1.94054   -0.45542
H     -1.72225    1.19233   -1.99133
H     -2.03122   -1.02428   -0.68643
H     -1.31195   -0.25278    0.68957
H      1.06627   -1.21808   -2.76540
H      0.27164    0.36377   -2.79365
H     -0.39862   -2.65286   -1.09811
