39   

C        1.2307637842   -4.6073201257   -0.3278652019
C        2.3179500687   -3.2647119035    1.3426262330
C        0.7042838489    1.1875327645    1.4244391776
C        2.0626458873   -5.6832842044    0.0048886487
C        3.1309046408   -4.3516164389    1.6874611754
C       -0.0080792595    2.3580282343    1.7022717567
C       -1.4791423309    1.8803799698   -0.1289592837
C        1.3527189219   -3.3630866246    0.3240437053
C        0.3299783042    0.3422362313    0.3689911910
C       -0.7719016752    0.7029459207   -0.4275844810
C        3.0152621777   -5.5663405199    1.0125691590
C       -1.1094817138    2.7091097149    0.9263084515
C       -0.7445120274   -2.4227169400   -0.5765441931
C        0.5248826334   -2.1890954448   -0.0558720529
C        1.1433999936   -0.8482102778    0.0905892497
C        2.4015636298   -0.6031582889   -0.4540573826
C       -1.1815027560   -0.1267442559   -1.6109489898
C       -1.7528167825   -1.4498253615   -1.1335349851
C        3.8197895605   -0.7374119331    0.0752947803
O        3.8182786011   -6.6239477200    1.3268975413
O       -1.8121278251    3.8495224640    1.1846109821
H        0.5350800123   -4.7423943388   -1.1461011772
H        2.4174411110   -2.3412182891    1.8993683249
H        1.5638883206    0.9280933627    2.0313840855
H        1.9813674411   -6.6201733216   -0.5323977917
H        3.8515689709   -4.2392841963    2.4872091751
H        0.3067261981    2.9894654897    2.5234641028
H       -2.3326846662    2.1724179344   -0.7279632819
H       -1.0808522604   -3.4502272021   -0.6199240485
H        2.3709964918    0.2470188647   -1.1270241100
H       -1.9543878392    0.4049982766   -2.1746414410
H       -0.3372048516   -0.2946161937   -2.2869548042
H       -2.2360668954   -1.9392778103   -1.9849051473
H       -2.5325546298   -1.2643592636   -0.3870598355
H        3.8383784635   -0.5658254251    1.1551479430
H        4.4744950443   -0.0034965709   -0.4041123545
H        4.2067155449   -1.7384311847   -0.1367974228
H        4.4234495711   -6.3899200010    2.0500486122
H       -1.4261185037    4.3199307824    1.9422583507
39   

C        1.2414375732   -4.5866066475   -0.2580642364
C        2.3054433618   -3.1745718582    1.3699874257
C        0.6811947336    1.1614669718    1.4292390878
C        2.0508740454   -5.6542482922    0.1481632836
C        3.0961193685   -4.2523661953    1.7878761667
C       -0.0700706310    2.2934822696    1.7593160325
C       -1.5137651374    1.8627582996   -0.1073884134
C        1.3635068154   -3.3131922058    0.3346684697
C        0.3385269888    0.3611304434    0.3298401729
C       -0.7675897919    0.7240577365   -0.4562235461
C        2.9803900617   -5.4981942335    1.1719459266
C       -1.1773610627    2.6483245602    0.9922864892
C       -0.6982102206   -2.3903320561   -0.6710415635
C        0.5567378664   -2.1513510644   -0.1170832371
C        1.1734724134   -0.7982332567   -0.0000884784
C        2.3840404732   -0.5164295812   -0.5967094204
C       -1.1327868035   -0.0667041339   -1.6807308915
C       -1.6884532366   -1.4217223619   -1.2733499244
C        3.8073797990   -0.8948493298   -0.2367578486
O        3.7608604039   -6.5486318231    1.5587126534
O       -1.9181065316    3.7507521170    1.3036016137
H        0.5630530124   -4.7552202705   -1.0844865681
H        2.4034361582   -2.2250091218    1.8816317264
H        1.5435856756    0.8960490272    2.0297397507
H        1.9694559354   -6.6161099974   -0.3430673507
H        3.7991965101   -4.1087206854    2.5982022408
H        0.2183516950    2.8915518754    2.6145459579
H       -2.3718465824    2.1564968122   -0.6989188830
H       -1.0444510488   -3.4150650789   -0.6930099706
H        2.3819830276    0.4407863124   -1.1072467192
H       -1.8994597361    0.4727766740   -2.2455257797
H       -0.2668780826   -0.1917493287   -2.3383573846
H       -2.1075172306   -1.8992721995   -2.1644891178
H       -2.5167227149   -1.2753315901   -0.5718809078
H        3.9598235202   -0.8201322411    0.8433140647
H        4.5133244334   -0.2212025235   -0.7315579580
H        4.0179433689   -1.9181059827   -0.5618971965
H        4.3485576566   -6.2874073467    2.2869321350
H       -1.5562485716    4.1891770567    2.0918096814
39   

C        1.2306526283   -4.5514822608   -0.1989779536
C        2.3243108882   -3.0602097577    1.3365104015
C        0.6550361069    1.1197468361    1.4604669822
C        2.0116717000   -5.6090091744    0.2826111468
C        3.0879719786   -4.1262179764    1.8278510193
C       -0.1378995516    2.2000068681    1.8597849134
C       -1.5519811488    1.8513176345   -0.0487498989
C        1.3799001985   -3.2444277462    0.3094409960
C        0.3464894923    0.3888503126    0.3049071970
C       -0.7646479541    0.7644860492   -0.4647621976
C        2.9417858185   -5.4075611830    1.2977536477
C       -1.2510330874    2.5695701596    1.1069052799
C       -0.6420253101   -2.3319181371   -0.8035209682
C        0.5959214759   -2.0944772689   -0.2103866197
C        1.2018670247   -0.7290488780   -0.0973474485
C        2.3714002128   -0.4007209502   -0.7233489750
C       -1.0836633867    0.0375319522   -1.7418267206
C       -1.6124967666   -1.3569485545   -1.4345982649
C        3.7595811086   -0.9863811654   -0.5909691412
O        3.6933115341   -6.4488658079    1.7592629839
O       -2.0323960683    3.6209547880    1.4877287351
H        0.5503925976   -4.7630624219   -1.0134882278
H        2.4483872949   -2.0818114837    1.7845543862
H        1.5195344502    0.8394044298    2.0510766865
H        1.9060237724   -6.6000717122   -0.1414458074
H        3.7936679722   -3.9451909448    2.6284095783
H        0.1217558568    2.7456232048    2.7582708464
H       -2.4147336744    2.1549443933   -0.6282591694
H       -1.0018583494   -3.3515215680   -0.8206977739
H        2.4066928669    0.6219251086   -1.0837190230
H       -1.8477829633    0.5917474371   -2.2956713179
H       -0.1981098507   -0.0263616571   -2.3817755037
H       -1.9594036341   -1.8024167210   -2.3721043962
H       -2.4885942584   -1.2671538095   -0.7836471384
H        4.0702957790   -0.9991827260    0.4571697667
H        4.4768513370   -0.3826152952   -1.1548129237
H        3.7779529074   -2.0065723686   -0.9862562567
H        4.2822273323   -6.1545252735    2.4737678391
H       -1.6966525563    4.0095078984    2.3128468652
39   

C        1.2415169550   -4.5475047348   -0.1427021992
C        2.3468536051   -3.0066329036    1.3345298457
C        0.6604533221    1.0765246827    1.4681711455
C        1.9979056238   -5.5952776135    0.3963909081
C        3.0870372408   -4.0617773383    1.8816047708
C       -0.1602577348    2.1210713633    1.9047446758
C       -1.5566366169    1.8148081489   -0.0255320922
C        1.4081595277   -3.2209250638    0.3071531136
C        0.3734397458    0.3858336465    0.2830170679
C       -0.7418542662    0.7634052548   -0.4775983774
C        2.9218265118   -5.3635376909    1.4106880284
C       -1.2785167786    2.4934689322    1.1600759116
C       -0.5789710822   -2.3203472909   -0.8869708303
C        0.6453156932   -2.0810111907   -0.2662788395
C        1.2393202888   -0.7078861955   -0.1560251608
C        2.4100669962   -0.3605077898   -0.7494383112
C       -1.0306118955    0.0738790905   -1.7832108277
C       -1.5367719760   -1.3430158533   -1.5377942707
C        3.7218185669   -1.1062034279   -0.8010323597
O        3.6491321100   -6.3954767000    1.9285578763
O       -2.0875493204    3.5087860542    1.5790722129
H        0.5647228707   -4.7873341391   -0.9519975293
H        2.4879447078   -2.0111967444    1.7380628349
H        1.5264885288    0.7907766212    2.0539207579
H        1.8768999413   -6.6033612674    0.0190916146
H        3.7894837129   -3.8558456321    2.6790454505
H        0.0808333679    2.6356776119    2.8264407995
H       -2.4233184571    2.1199462246   -0.5982524198
H       -0.9465750572   -3.3369071737   -0.9004104723
H        2.5089541701    0.6925885316   -0.9902439388
H       -1.7946867340    0.6337964669   -2.3313170607
H       -0.1334580013    0.0493267532   -2.4095915764
H       -1.8352678635   -1.7679672118   -2.5011007181
H       -2.4412545060   -1.2889325863   -0.9227941238
H        4.1436924518   -1.2083854606    0.2024416709
H        4.4382261050   -0.5579727236   -1.4200003953
H        3.5779526524   -2.0996072614   -1.2368208721
H        4.2357881075   -6.0786464661    2.6352948099
H       -1.7693599994    3.8665543140    2.4248465297
39   

C        1.2434412348   -4.4908361096   -0.1573921642
C        2.3446229422   -2.9284803419    1.3003672353
C        0.6248866039    1.0999027745    1.4589617566
C        1.9912137256   -5.5318831474    0.4062573930
C        3.0769718595   -3.9765821096    1.8708486909
C       -0.2141576329    2.1203445516    1.9171364054
C       -1.6029062596    1.8334212778   -0.0224215551
C        1.4115079013   -3.1569176013    0.2702937225
C        0.3503139762    0.4316145723    0.2580817182
C       -0.7696599711    0.8062124305   -0.4957631490
C        2.9090250285   -5.2858724944    1.4226723732
C       -1.3378244662    2.4900325214    1.1788679416
C       -0.5614143311   -2.2688003473   -0.9613792438
C        0.6538854183   -2.0235532367   -0.3253322463
C        1.2261581487   -0.6428978940   -0.2049514004
C        2.4193218151   -0.2848782522   -0.7334402375
C       -1.0392526245    0.1403530431   -1.8182455110
C       -1.5211329952   -1.2924161537   -1.6130403151
C        3.6457043825   -1.1283670117   -0.9632045040
O        3.6279897282   -6.3113713313    1.9644137882
O       -2.1646700550    3.4815457401    1.6195449973
H        0.5709643927   -4.7440196475   -0.9660714868
H        2.4900214774   -1.9266437181    1.6862837551
H        1.4938217089    0.8145485733    2.0406092115
H        1.8677417445   -6.5462795623    0.0470839482
H        3.7756899884   -3.7589989724    2.6684976726
H        0.0165163805    2.6178623517    2.8508291971
H       -2.4734930408    2.1365587924   -0.5901976459
H       -0.9252191350   -3.2864379815   -0.9810592756
H        2.5766775992    0.7805327178   -0.8628882240
H       -1.8084443999    0.6998139684   -2.3595881506
H       -0.1370522807    0.1468353696   -2.4378739224
H       -1.7932314584   -1.7014865404   -2.5909124094
H       -2.4384252338   -1.2676328264   -1.0154315614
H        4.1522045374   -1.3345719503   -0.0164242775
H        4.3442980643   -0.5967302718   -1.6160579741
H        3.3778266869   -2.0734637186   -1.4452895099
H        4.2108826628   -5.9842776587    2.6696036141
H       -1.8545011236    3.8242598640    2.4745014962
39   

C        1.2507094275   -4.4801219447   -0.1452368402
C        2.3429451944   -2.9075337887    1.3082744480
C        0.6149863695    1.1034043915    1.4511354286
C        1.9924064525   -5.5176322862    0.4326836704
C        3.0695456339   -3.9520481537    1.8925547406
C       -0.2335871804    2.1138027824    1.9139332571
C       -1.6170605127    1.8261969825   -0.0296137376
C        1.4172898038   -3.1428464550    0.2726825090
C        0.3475378975    0.4398656059    0.2456985876
C       -0.7745344567    0.8085614561   -0.5070794506
C        2.9029494811   -5.2646910839    1.4538563499
C       -1.3593364728    2.4780779106    1.1759996072
C       -0.5470292556   -2.2640489196   -0.9798198264
C        0.6644920463   -2.0135086264   -0.3384912802
C        1.2265625299   -0.6297051992   -0.2222089154
C        2.4560990557   -0.2834620634   -0.6591222756
C       -1.0345986893    0.1465261184   -1.8335455189
C       -1.5066584073   -1.2913453753   -1.6381047010
C        3.6017059608   -1.1815321602   -1.0401860412
O        3.6164400900   -6.2867713658    2.0091157503
O       -2.1955937597    3.4594256083    1.6216339959
H        0.5840315371   -4.7393345658   -0.9567831423
H        2.4883668273   -1.9027816671    1.6865091089
H        1.4842087737    0.8209633388    2.0337909956
H        1.8698558836   -6.5347832401    0.0810431269
H        3.7630210851   -3.7289045356    2.6932411647
H       -0.0091212243    2.6072147800    2.8513260859
H       -2.4892745520    2.1250181657   -0.5971445200
H       -0.9100969942   -3.2819850808   -0.9956480321
H        2.6703412007    0.7793326490   -0.6911128614
H       -1.8050614580    0.7032455491   -2.3758803907
H       -0.1295031612    0.1625370150   -2.4488615343
H       -1.7668418876   -1.6987010714   -2.6199121908
H       -2.4296361842   -1.2753667378   -1.0490193988
H        4.1543180296   -1.4979807962   -0.1514007710
H        4.2911777675   -0.6422353675   -1.6964291927
H        3.2407598989   -2.0642412416   -1.5767771258
H        4.1952694569   -5.9546603856    2.7153081145
H       -1.8906829712    3.7982391714    2.4800359298
39   

C        1.2867963252   -4.4489335375   -0.1441695874
C        2.3654175721   -2.8760000895    1.3190216533
C        0.6300922512    1.1397268786    1.4377601656
C        2.0279216025   -5.4854601507    0.4360374211
C        3.0914855070   -3.9197348563    1.9055421168
C       -0.2235685324    2.1470264150    1.8977050200
C       -1.6060892585    1.8459429972   -0.0443728480
C        1.4467146170   -3.1118353551    0.2770749140
C        0.3661177643    0.4709289170    0.2338164612
C       -0.7585012430    0.8310528491   -0.5188272596
C        2.9314713932   -5.2319745039    1.4631552327
C       -1.3513417579    2.5031000202    1.1590232736
C       -0.5190409535   -2.2421315939   -0.9773146890
C        0.6925557208   -1.9848725729   -0.3385699529
C        1.2474666777   -0.5987596955   -0.2312019240
C        2.5156016120   -0.2750916368   -0.5591040231
C       -1.0154399999    0.1627517601   -1.8425894331
C       -1.4818755926   -1.2761094091   -1.6409427890
C        3.6001785020   -1.1780802486   -1.0773583548
O        3.6445648509   -6.2531833597    2.0205285106
O       -2.1926704725    3.4812375329    1.6021516481
H        0.6260786620   -4.7082549501   -0.9606005073
H        2.5056150643   -1.8719344772    1.7007929191
H        1.4996558280    0.8630945451    2.0227083709
H        1.9104768723   -6.5021992287    0.0814621880
H        3.7793820611   -3.6962985500    2.7109375634
H       -0.0017236649    2.6440568669    2.8338233475
H       -2.4801478894    2.1382120515   -0.6124492609
H       -0.8799857863   -3.2609693245   -0.9857443573
H        2.7739904926    0.7763699193   -0.4962044823
H       -1.7876777320    0.7143079120   -2.3876452031
H       -0.1098916030    0.1796073149   -2.4572835720
H       -1.7395948545   -1.6889500897   -2.6210972805
H       -2.4054363602   -1.2610834464   -1.0527368789
H        4.1812100180   -1.5952501189   -0.2503278651
H        4.2791250871   -0.6088835839   -1.7191494718
H        3.1766503315   -1.9950585665   -1.6695234295
H        4.2182310741   -5.9209352889    2.7308477352
H       -1.8893087193    3.8240359717    2.4595261074
39   

C        1.2648691358   -4.4553607665   -0.1510840282
C        2.3398218214   -2.8917390310    1.3244473110
C        0.6011436031    1.1433240747    1.4199427185
C        2.0081644310   -5.4949102450    0.4206600050
C        3.0679497817   -3.9387540892    1.9027037651
C       -0.2531317415    2.1531798549    1.8729072807
C       -1.6335173058    1.8397594504   -0.0682373484
C        1.4216585078   -3.1210128912    0.2801971221
C        0.3397750097    0.4671795459    0.2185931565
C       -0.7857173296    0.8216066166   -0.5353858850
C        2.9110440974   -5.2477360107    1.4497367437
C       -1.3797996295    2.5049017655    1.1308246060
C       -0.5522285258   -2.2537631145   -0.9601851557
C        0.6636874697   -1.9930439336   -0.3307286081
C        1.2206781028   -0.6073755438   -0.2402504962
C        2.5205051619   -0.3147035992   -0.4566651193
C       -1.0457089220    0.1410524266   -1.8518211614
C       -1.5159345142   -1.2935348945   -1.6308101365
C        3.5623845272   -1.1811952861   -1.1071506230
O        3.6262497017   -6.2718927804    1.9989415023
O       -2.2217392653    3.4855774894    1.5671405728
H        0.6052535562   -4.7092251367   -0.9702070335
H        2.4767388210   -1.8914693889    1.7167433895
H        1.4684098990    0.8701569843    2.0098933923
H        1.8930801699   -6.5089423654    0.0576594794
H        3.7547713383   -3.7204706291    2.7104122092
H       -0.0328336460    2.6552929941    2.8066849241
H       -2.5077027266    2.1275922644   -0.6383654755
H       -0.9145400567   -3.2722527909   -0.9567359572
H        2.8118193372    0.7179882979   -0.2992890753
H       -1.8175198780    0.6885658557   -2.4015209695
H       -0.1410015574    0.1481721755   -2.4679784128
H       -1.7790068133   -1.7174905618   -2.6047687157
H       -2.4368733452   -1.2688101824   -1.0388024190
H        4.1632046344   -1.6922420355   -0.3496816995
H        4.2289430635   -0.5646522257   -1.7173951439
H        3.0957250986   -1.9277893929   -1.7571403679
H        4.1991792139   -5.9441717762    2.7119418120
H       -1.9192704360    3.8337135642    2.4226783319
39   

C        1.2469435785   -4.4732733028   -0.1640806970
C        2.3196628314   -2.9293548517    1.3331043159
C        0.5825693891    1.1409789011    1.3942838927
C        1.9924057968   -5.5197687757    0.3916821767
C        3.0500298326   -3.9835714686    1.8954633820
C       -0.2696783930    2.1587166952    1.8327506752
C       -1.6410366557    1.8312571644   -0.1115574059
C        1.4016031393   -3.1445321508    0.2853576043
C        0.3271849816    0.4543177998    0.1962652688
C       -0.7955177135    0.8044740699   -0.5640587668
C        2.8957125906   -5.2860054378    1.4232830595
C       -1.3902713362    2.5082624515    1.0812011433
C       -0.5809447831   -2.2740678848   -0.9343162312
C        0.6408792531   -2.0122171541   -0.3162680211
C        1.2073580351   -0.6293784800   -0.2493445511
C        2.5313541953   -0.3726870207   -0.3491022739
C       -1.0597280861    0.1052093435   -1.8689861897
C       -1.5417558872   -1.3200103399   -1.6173748522
C        3.5565162665   -1.1625556930   -1.1145980325
O        3.6134864671   -6.3167296971    1.9566212238
O       -2.2301958888    3.4968364319    1.5033341204
H        0.5880075507   -4.7158400910   -0.9873010556
H        2.4529410568   -1.9363877462    1.7441075772
H        1.4431049714    0.8703230905    1.9950939149
H        1.8790740794   -6.5284725217    0.0135948610
H        3.7362281624   -3.7761058211    2.7065311389
H       -0.0526640395    2.6683695906    2.7632197427
H       -2.5123574028    2.1155155570   -0.6878140101
H       -0.9475563318   -3.2910081589   -0.9149246675
H        2.8426046866    0.6344382934   -0.0950468674
H       -1.8278405223    0.6486358577   -2.4278300161
H       -0.1551766682    0.0932020088   -2.4852931147
H       -1.8136652791   -1.7608314520   -2.5813553309
H       -2.4591017958   -1.2761614534   -1.0208538629
H        4.1713454790   -1.7530317881   -0.4293544938
H        4.2092664632   -0.4849871430   -1.6727926911
H        3.0705617122   -1.8381177970   -1.8253961356
H        4.1876271709   -5.9981620488    2.6727727281
H       -1.9300008683    3.8529595390    2.3563890634
39   

C        1.2328228362   -4.4941264108   -0.1466946875
C        2.3004983490   -2.9773206048    1.3808373529
C        0.5750315730    1.1352129395    1.3882655365
C        1.9783738793   -5.5501026207    0.3904405087
C        3.0309241061   -4.0412914654    1.9247064838
C       -0.2764496467    2.1624761966    1.8049135099
C       -1.6231283239    1.8233873702   -0.1532540071
C        1.3858341286   -3.1731453492    0.3259751508
C        0.3353304999    0.4385907585    0.1909969741
C       -0.7787119054    0.7860804454   -0.5837374336
C        2.8800007188   -5.3346283616    1.4272480454
C       -1.3835672435    2.5121424598    1.0346640262
C       -0.5981906071   -2.2933902605   -0.8787078951
C        0.6284346029   -2.0337317552   -0.2685954759
C        1.2152580444   -0.6581268831   -0.2331263238
C        2.5530117694   -0.4385905814   -0.2165196383
C       -1.0428159197    0.0643763765   -1.8752627415
C       -1.5467927703   -1.3457581723   -1.5867548517
C        3.5873489972   -1.1159534348   -1.0760158063
O        3.5993499882   -6.3740592146    1.9412245948
O       -2.2230598453    3.5097581564    1.4358584231
H        0.5767927995   -4.7209958076   -0.9768701823
H        2.4295795135   -1.9939923283    1.8150669999
H        1.4214758737    0.8655251855    2.0090356354
H        1.8674001621   -6.5514324452   -0.0074197433
H        3.7145137669   -3.8486043496    2.7415830769
H       -0.0697241488    2.6788267401    2.7340497070
H       -2.4870259434    2.1046776265   -0.7419914333
H       -0.9740514298   -3.3065809233   -0.8382916704
H        2.8710740243    0.5352510789    0.1377324998
H       -1.8007405047    0.6048248147   -2.4506457909
H       -0.1349463740    0.0242985381   -2.4854278360
H       -1.8241486382   -1.8082916876   -2.5389220353
H       -2.4637443369   -1.2734682904   -0.9923145961
H        4.2066434971   -1.7812276486   -0.4674673577
H        4.2317588860   -0.3688217239   -1.5484784011
H        3.1045827073   -1.7066284818   -1.8607439318
H        4.1759335157   -6.0673494308    2.6605651724
H       -1.9322846630    3.8722270416    2.2895169775
39   

C        1.1950865328   -4.5107840710   -0.1146970427
C        2.2625133690   -3.0192371969    1.4370926293
C        0.5598724095    1.1496627045    1.3527962057
C        1.9416451747   -5.5752872303    0.4035588776
C        2.9940350210   -4.0920005101    1.9622536667
C       -0.2840679181    2.1972381000    1.7316231598
C       -1.6002682438    1.8327955898   -0.2408526670
C        1.3491973306   -3.1970042008    0.3775787777
C        0.3369998888    0.4311749813    0.1630499868
C       -0.7637068456    0.7739397690   -0.6333315489
C        2.8449578808   -5.3765604107    1.4420309720
C       -1.3709346226    2.5461204478    0.9339984911
C       -0.6354782967   -2.3082538176   -0.8120692783
C        0.5981732881   -2.0510091620   -0.2145758759
C        1.2123121637   -0.6873709240   -0.2253971645
C        2.5565712203   -0.5052566544   -0.1067887229
C       -1.0327593008    0.0139155602   -1.9003231923
C       -1.5682495369   -1.3709657049   -1.5535705099
C        3.6218125278   -1.0369009739   -1.0329322893
O        3.5680507061   -6.4234317569    1.9352558699
O       -2.2030694332    3.5637696951    1.2985100312
H        0.5398096767   -4.7227133840   -0.9496273186
H        2.3894704420   -2.0447712275    1.8910301772
H        1.3853922760    0.8831694192    2.0021372742
H        1.8316997970   -6.5694825157   -0.0120769906
H        3.6776445083   -3.9130154662    2.7822006713
H       -0.0876471833    2.7294252636    2.6540643549
H       -2.4526931190    2.1096785443   -0.8480803779
H       -1.0238305522   -3.3153754916   -0.7415089347
H        2.8702377553    0.4265978673    0.3480790356
H       -1.7774141783    0.5470985412   -2.4993051027
H       -0.1228477778   -0.0692497087   -2.5029775555
H       -1.8591123939   -1.8657617793   -2.4852373713
H       -2.4810954428   -1.2549842562   -0.9596023871
H        4.2443817929   -1.7670542921   -0.5077596660
H        4.2563973148   -0.2200921751   -1.3890216171
H        3.1628542794   -1.5268523888   -1.8971586731
H        4.1527588057   -6.1266333682    2.6521685704
H       -1.9211878231    3.9417625314    2.1484365090
39   

C        1.1581123168   -4.5244976052   -0.0989964965
C        2.2358471600   -3.0532312988    1.4646109237
C        0.5523241092    1.1533824071    1.3133842457
C        1.9050207242   -5.5965399460    0.4025355299
C        2.9678846194   -4.1337931411    1.9732594546
C       -0.2838720948    2.2166922810    1.6636541557
C       -1.5759479390    1.8370182134   -0.3198110089
C        1.3187093873   -3.2161896800    0.4058708126
C        0.3433836653    0.4202510192    0.1277430412
C       -0.7474379544    0.7615232028   -0.6838444205
C        2.8148458922   -5.4116099491    1.4376661295
C       -1.3533378093    2.5675613278    0.8450838508
C       -0.6673880302   -2.3173289215   -0.7672484150
C        0.5744903895   -2.0642095352   -0.1846221240
C        1.2136119653   -0.7142019865   -0.2399069068
C        2.5614861687   -0.5563703900   -0.0514792858
C       -1.0248998951   -0.0274266760   -1.9301343911
C       -1.5867851578   -1.3889469250   -1.5359407793
C        3.6721392449   -0.8851878383   -1.0220480445
O        3.5408705537   -6.4650498146    1.9122658364
O       -2.1775787175    3.6009429732    1.1822209701
H        0.4993550000   -4.7242245770   -0.9343921818
H        2.3660511085   -2.0853388078    1.9310871008
H        1.3568279417    0.8898766814    1.9889288990
H        1.7916298183   -6.5852038357   -0.0252087912
H        3.6558763996   -3.9661716206    2.7919173653
H       -0.0953670262    2.7590602355    2.5818409904
H       -2.4192975118    2.1116790616   -0.9405290059
H       -1.0684736694   -3.3172564834   -0.6678053165
H        2.8720325853    0.2667885003    0.5785064990
H       -1.7595403465    0.5002922517   -2.5460556074
H       -0.1155641124   -0.1463190078   -2.5275627745
H       -1.8903276770   -1.9092022464   -2.4494775937
H       -2.4950333358   -1.2362032698   -0.9431161170
H        4.5724913271   -0.3113382015   -0.7837851138
H        3.3603046399   -0.6448581209   -2.0427354969
H        3.9090066416   -1.9520203697   -0.9698545947
H        4.1378011560   -6.1759416406    2.6221862988
H       -1.9011289576    3.9901634404    2.0288843356
39   

C        1.1030235621   -4.5608005017   -0.0371779006
C        2.2271043620   -3.0719785249    1.4759680803
C        0.5830391226    1.1272155581    1.2545002250
C        1.8334686032   -5.6346754358    0.4841437679
C        2.9428135384   -4.1539723800    2.0047617327
C       -0.2490065134    2.1964735000    1.5954052742
C       -1.5335154854    1.8136331559   -0.3910402022
C        1.2952240007   -3.2431004685    0.4315689148
C        0.3784521344    0.3885580269    0.0697844640
C       -0.7099518845    0.7307826747   -0.7450308349
C        2.7583077214   -5.4417950020    1.5042300720
C       -1.3119759282    2.5495331167    0.7704028904
C       -0.6803812772   -2.3379585519   -0.7548878536
C        0.5689595267   -2.0927535384   -0.1840229951
C        1.2388453049   -0.7599312932   -0.2887327245
C        2.5933197107   -0.6050998287   -0.0853803012
C       -0.9966758918   -0.0733951792   -1.9785818106
C       -1.5805064154   -1.4171560656   -1.5555615471
C        3.7405458128   -0.6805706979   -1.0726426627
O        3.4684193859   -6.4972715398    1.9980452879
O       -2.1330479956    3.5877130334    1.1004032111
H        0.4320084184   -4.7690694770   -0.8606306505
H        2.3815571148   -2.0964843961    1.9177731711
H        1.3757834703    0.8658242745    1.9437471179
H        1.6955698000   -6.6314111653    0.0831619188
H        3.6429993222   -3.9796548174    2.8115821361
H       -0.0630798856    2.7406983891    2.5130720257
H       -2.3745772742    2.0875377462   -1.0151184798
H       -1.1035019513   -3.3244842350   -0.6193623212
H        2.8776486851    0.0951746572    0.6872828736
H       -1.7220438711    0.4541224763   -2.6055421138
H       -0.0880988549   -0.2183336267   -2.5713279404
H       -1.8847026481   -1.9559598964   -2.4580248442
H       -2.4908211568   -1.2370095994   -0.9736376759
H        4.5895107012   -0.0853398222   -0.7232954456
H        3.4198269628   -0.3000564266   -2.0469559048
H        4.0612266860   -1.7200310002   -1.1895523427
H        4.0822004404   -6.2015971361    2.6906538867
H       -1.8611839676    3.9755759775    1.9492230235
