32

C     -5.00868    2.28703   -5.12532
C     -5.55262    1.06175   -5.51965
C     -3.69223    2.33389   -4.65985
C     -4.77486   -0.09904   -5.45568
C     -2.91582    1.17097   -4.59637
C     -3.44811   -0.06635   -5.00569
C     -1.47107    1.26649   -4.17443
C     -0.75445    3.29976   -0.59360
C     -2.17400    2.99200   -1.09216
C      0.26823    3.16321   -1.73099
C     -2.22103    1.63133   -1.79700
C      0.15634    1.79650   -2.41745
C     -2.61057   -1.32332   -4.96924
N     -1.21967    1.56521   -2.86159
O     -0.57158    1.10084   -5.00445
H     -5.60203    3.19611   -5.17751
H     -6.57756    1.00802   -5.87789
H     -3.25950    3.28140   -4.34703
H     -5.20420   -1.04936   -5.76525
H     -0.49620    2.59660    0.21043
H     -0.71197    4.30440   -0.15851
H     -2.88576    2.99328   -0.25858
H     -2.49745    3.76724   -1.79807
H      0.09795    3.94641   -2.48012
H      1.28768    3.29475   -1.35062
H     -2.00332    0.83547   -1.06854
H     -3.20871    1.43368   -2.21015
H      0.80441    1.72500   -3.29023
H      0.44060    0.99868   -1.71552
H     -1.79168   -1.26022   -5.69182
H     -2.15270   -1.47225   -3.98510
H     -3.21541   -2.20450   -5.19919
