33

C     -2.79684    3.09373    3.10147
C     -2.20847    3.07718    1.83710
C     -2.73010    1.96300    3.91730
C     -1.54404    1.93674    1.36435
C     -2.06638    0.80904    3.48494
C     -1.47216    0.80939    2.20622
C     -1.55673   -1.36471    1.02239
C      0.60568   -0.36466    1.46849
C     -1.01896   -2.77074    1.27308
C      1.23571   -1.72538    1.75398
C     -0.93003    1.96132   -0.01881
C     -1.99434   -0.40853    4.37734
N     -0.80198   -0.40667    1.80596
N      0.47240   -2.78485    0.97302
H     -3.31137    3.98521    3.44887
H     -2.27242    3.95602    1.20067
H     -3.19139    1.97754    4.90118
H     -1.53580   -1.15426   -0.06428
H     -2.60455   -1.34332    1.32887
H      1.10854    0.38027    2.08919
H      0.80313   -0.09618    0.41428
H     -1.12340   -3.05022    2.32238
H     -1.48629   -3.52327    0.63394
H      2.28044   -1.78071    1.43955
H      1.14446   -1.99323    2.80752
H      0.15197    2.13321    0.01953
H     -1.10040    1.03056   -0.56796
H     -1.35940    2.77057   -0.61341
H     -2.55438   -1.25359    3.95891
H     -0.96106   -0.74184    4.51706
H     -2.41795   -0.19410    5.36088
H      0.60874   -2.61487   -0.03158
H      0.86148   -3.71421    1.16618
