22

C      1.39500   -1.73665   -0.01058
C      0.80094   -0.55797    0.45555
C      2.45638   -2.31037    0.68955
C      1.25756    0.03655    1.63450
C      5.93982   -2.79030    3.50949
C      5.11001   -3.93558    3.42156
C      2.93471   -1.71963    1.86613
C      2.30517   -0.55977    2.32760
C      5.20398   -1.75984    2.94752
C      5.56875   -0.32968    2.70337
N      3.94217   -3.65978    2.84775
N      4.00381   -2.31959    2.57491
F      2.70963   -0.00292    3.49602
H      1.03522   -2.20585   -0.92155
H     -0.02111   -0.10437   -0.09068
H      2.92846   -3.22603    0.34907
H      0.80524    0.93812    2.03606
H      6.94081   -2.71883    3.91367
H      5.31259   -4.94701    3.75289
H      5.25085   -0.00056    1.70863
H      5.10775    0.33801    3.43654
H      6.65313   -0.21525    2.76841
