17

C      1.99597   -0.30367   -0.36876
C      0.70770    0.27507   -0.46956
C      3.01915    0.28704   -1.06454
C      0.44760    1.39742   -1.23237
C      1.52903    2.03607   -1.97815
C     -0.96543    1.91227   -1.25436
C     -1.30788    3.13721   -2.06778
N      2.77964    1.39083   -1.81897
O      1.47745    3.03352   -2.70166
O     -1.82752    1.32454   -0.60519
H      2.18081   -1.18428    0.23478
H     -0.13239   -0.16066    0.06506
H      4.04083   -0.07991   -1.05266
H     -1.05863    2.98317   -3.12167
H     -0.70767    3.99398   -1.74813
H     -2.37248    3.34565   -1.94940
H      3.53312    1.83338   -2.33708
