18   
Generated by ForceBalance from scan.xyz: Frame 1 of 24
C        2.1704231856   -0.1044374996    0.6477496216
C        4.6532147388   -0.2934238151    1.1387698960
C       -0.1248315684    0.3600711394   -0.0388342521
C        1.0525153838   -1.5537519228   -1.0469256554
C        3.4649243375   -0.8710134726    0.3698898493
N        1.0346802721   -0.5273622616   -0.0128171485
O        2.1537407061    0.8607405489    1.4133423043
H        4.8195019276    0.7533924223    0.8732460650
H        5.5614635658   -0.8615754791    0.9122249730
H        4.4766389469   -0.3307698098    2.2164074816
H       -1.0447790383   -0.2244562349    0.0690692404
H       -0.1724281714    0.9157197637   -0.9860147633
H       -0.0456500625    1.0683828355    0.7839538282
H        0.0546134530   -1.9956633333   -1.1241680980
H        1.7487332899   -2.3548779521   -0.7998268574
H        1.3205445979   -1.1474221092   -2.0338743420
H        3.6609829343   -0.8500540892   -0.7094270001
H        3.3277332634   -1.9279329954    0.6297806387
18   
Generated by ForceBalance from scan.xyz: Frame 2 of 24
C        2.1144239556   -0.1791514816    0.7331059405
C        4.6254838637   -0.2486430529    1.0998811915
C       -0.0959168662    0.4007478112   -0.1162884608
C        1.0259702779   -1.5881268798   -1.0017907044
C        3.4371435663   -0.8401823188    0.3420956317
N        0.9763196956   -0.5798350348    0.0506391326
O        2.0784921706    0.7258872148    1.5660888750
H        4.7139181830    0.8243767384    0.9135150747
H        5.5539474267   -0.7373519668    0.7866764914
H        4.5065525025   -0.3821688883    2.1778611705
H       -1.0717010822   -0.0937639677   -0.0639589675
H       -0.0108273901    0.9048937389   -1.0897589986
H       -0.0266355104    1.1403464095    0.6796095166
H        0.0187121909   -1.9877446123   -1.1525741977
H        1.6706793437   -2.4209153311   -0.7205764632
H        1.3755561508   -1.1799586153   -1.9628494380
H        3.5704960327   -0.7220946879   -0.7406258790
H        3.3829457342   -1.9215122792    0.5186307776
18   
Generated by ForceBalance from scan.xyz: Frame 3 of 24
C        2.0821037454   -0.2587136352    0.8216794280
C        4.6090199131   -0.2337754388    1.0884117352
C       -0.0389105118    0.4256887117   -0.1528927875
C        0.9885651318   -1.6495213762   -0.9133879294
C        3.4193756442   -0.7986972233    0.3133174518
N        0.9284830473   -0.6360106342    0.1358652899
O        2.0381840282    0.5800525848    1.7183330608
H        4.6322776921    0.8569603941    1.0300545983
H        5.5462581039   -0.6279488502    0.6820417835
H        4.5479153898   -0.5012511232    2.1463454839
H       -1.0527029135    0.0136356160   -0.1875551775
H        0.1808722858    0.8967644160   -1.1226757660
H        0.0101503557    1.1765967962    0.6343889660
H       -0.0276404758   -1.9990299786   -1.1181945734
H        1.5728115554   -2.5122250870   -0.5910512536
H        1.4111310589   -1.2681499047   -1.8566282574
H        3.4897601170   -0.5429539486   -0.7520039360
H        3.4329963374   -1.8943826021    0.3532960333
18   
Generated by ForceBalance from scan.xyz: Frame 4 of 24
C        2.0456831225   -0.3251006996    0.8789525616
C        4.5811416146   -0.2176489179    1.0680684620
C        0.0271209986    0.4443057247   -0.2145710974
C        0.9445700387   -1.7179731623   -0.8360214265
C        3.3858748136   -0.7326256965    0.2676772585
N        0.8717913680   -0.6839149219    0.1950997228
O        1.9950065612    0.4344195818    1.8398986917
H        4.5552038822    0.8710963364    1.1540936448
H        5.5172711055   -0.5101237440    0.5812879855
H        4.5752054605   -0.6242746525    2.0827933212
H       -1.0032548313    0.1052328262   -0.3605879707
H        0.3874174033    0.8838960009   -1.1580384582
H        0.0377788933    1.2036596382    0.5667918272
H       -0.0742677482   -2.0261152366   -1.0887383167
H        1.4694857774   -2.5991091029   -0.4629866412
H        1.4338654500   -1.3784309101   -1.7634979368
H        3.3953337043   -0.3305208373   -0.7547329229
H        3.4488989211   -1.8205541078    0.1519470900
18   
Generated by ForceBalance from scan.xyz: Frame 5 of 24
C        2.0255659561   -0.4067227116    0.9470059833
C        4.5637095717   -0.2025966104    1.0494357483
C        0.1257124417    0.4500777387   -0.2587008026
C        0.9023847362   -1.7891543957   -0.7505716867
C        3.3545095720   -0.6742514196    0.2435535026
N        0.8273310860   -0.7323004220    0.2599383836
O        1.9772526199    0.2374134883    1.9845052447
H        4.4970760113    0.8659550114    1.2670036385
H        5.4878048579   -0.3911566791    0.4933660049
H        4.6220839968   -0.7267467464    2.0071331443
H       -0.9034906314    0.1818799447   -0.5163683607
H        0.6173671940    0.8491405234   -1.1616113502
H        0.0997359154    1.2231935086    0.5100285927
H       -0.1174001612   -2.0686743920   -1.0321432758
H        1.3833040746   -2.6784464568   -0.3373280539
H        1.4348445386   -1.4896141464   -1.6687017617
H        3.2962988002   -0.1513641433   -0.7217953801
H        3.4546966267   -1.7354115129   -0.0099091886
18   
Generated by ForceBalance from scan.xyz: Frame 6 of 24
C        2.1659286948   -0.8642132094    0.4728783458
C        4.3966242465   -0.0369307231    1.4128631928
C        0.4844361324    0.5061756549   -0.5605680707
C        0.3064378280   -1.8927660616   -0.6557440996
C        3.5400397426   -0.2887450385    0.1724171539
N        1.2439873389   -0.7567922205   -0.6152181268
O        1.9434430251   -1.5460119102    1.4613459344
H        3.9578659900    0.7439990543    2.0423646906
H        5.4039952282    0.2824261729    1.1277376456
H        4.4759023378   -0.9430464270    2.0181712844
H       -0.2041179466    0.5308927612    0.2976007679
H       -0.0952433773    0.6194742657   -1.4812754123
H        1.1670848131    1.3579836008   -0.4843598410
H       -0.3841636368   -1.9099034905    0.1982598514
H        0.8674137672   -2.8294631054   -0.6614869136
H       -0.2706394591   -1.8217471691   -1.5825771201
H        3.4426626284    0.6090438801   -0.4478157293
H        4.0073104156   -1.0391611471   -0.4791052457
18   
Generated by ForceBalance from scan.xyz: Frame 7 of 24
C        2.2291438088   -0.9807374715    0.3990228317
C        4.3328996408    0.0577463237    1.4121403740
C        0.5821988156    0.5213522714   -0.5740321486
C        0.2347663968   -1.8686668542   -0.6155365485
C        3.5483215373   -0.2631955580    0.1380478116
N        1.2392974760   -0.7953780981   -0.5907161416
O        2.1307259940   -1.8371146227    1.2692815815
H        3.8084485566    0.8014274750    2.0215420413
H        5.3219521129    0.4575461831    1.1672058835
H        4.4602215268   -0.8413710884    2.0195134836
H       -0.1108909930    0.6129212817    0.2752526442
H        0.0184738654    0.6602529840   -1.5012217550
H        1.3224230704    1.3219575534   -0.5050707122
H       -0.4171281783   -1.8583235976    0.2686414455
H        0.7348067101   -2.8371171956   -0.6574781280
H       -0.3773546423   -1.7410049932   -1.5131965384
H        3.3984047195    0.6279208937   -0.4784330427
H        4.1122435159   -0.9670509540   -0.4875589382
18   
Generated by ForceBalance from scan.xyz: Frame 8 of 24
C        2.2896284648   -1.1811137981    0.2645778847
C        4.1462334225    0.1314848262    1.4131385341
C        0.6849354450    0.5086787786   -0.4953193559
C        0.1414399896   -1.8587917922   -0.5881216291
C        3.5686911740   -0.3688369776    0.0828855121
N        1.2143131566   -0.8581280602   -0.5691432940
O        2.2857591014   -2.1868359172    0.9693549536
H        3.4882704784    0.8746769967    1.8771957640
H        5.1252078721    0.5968351423    1.2612077481
H        4.2623696867   -0.7005684660    2.1122279664
H        0.0361868907    0.6368181477    0.3833844343
H        0.0987245417    0.7262396202   -1.3933372282
H        1.4944166023    1.2377663500   -0.4340030719
H       -0.4366039345   -1.8680015305    0.3461714376
H        0.5697148210   -2.8507137160   -0.7315390686
H       -0.5293250955   -1.6277516429   -1.4208079599
H        3.4321963911    0.4528205901   -0.6243465889
H        4.2718218304   -1.0695660806   -0.3816108341
18   
Generated by ForceBalance from scan.xyz: Frame 9 of 24
C        1.9716284527   -0.5342288941    0.4753618370
C        4.3624647863   -0.2165329206    1.2618994935
C        0.7794391017    0.7913329792   -1.2247224333
C       -0.0769854267   -1.3756818621   -0.4827003631
C        3.2536927491    0.2893041933    0.3368871859
N        1.0892166345   -0.4963893465   -0.6005532352
O        1.7967829584   -1.2964289648    1.4235882506
H        4.0411119987   -0.1903702192    2.3053586797
H        5.2577834378    0.4041154777    1.1528592283
H        4.6273379571   -1.2511581900    1.0266102276
H        0.0819298819    1.3819849105   -0.6123891201
H        0.3175866296    0.6190296882   -2.2012637852
H        1.6856564022    1.3768783895   -1.3834851167
H       -0.8216869582   -0.9842321088    0.2245115868
H        0.2410895486   -2.3564253345   -0.1309154105
H       -0.5398108806   -1.4728575927   -1.4689746718
H        3.0313655150    1.3390074141    0.5710258941
H        3.5782958900    0.2701177488   -0.7087945490
18   
Generated by ForceBalance from scan.xyz: Frame 10 of 24
C        2.0016008951   -0.6425732175    0.4331976010
C        4.3466954069   -0.1848578830    1.2883286038
C        0.8101968269    0.7773010043   -1.2208320034
C       -0.1397257260   -1.3550789747   -0.4513892510
C        3.2303006756    0.2649287026    0.3449650411
N        1.0427957199   -0.5010313031   -0.5553828875
O        1.9124351738   -1.5170985944    1.2949101634
H        4.0004931606   -0.1989509989    2.3242385139
H        5.2018196786    0.4947599312    1.2120533961
H        4.6827304644   -1.1958539811    1.0434489731
H        0.1715192200    1.4410832602   -0.6191381642
H        0.3101637527    0.6000722715   -2.1778137139
H        1.7483054926    1.2914210031   -1.4277630655
H       -0.8878357395   -0.9357348201    0.2362584854
H        0.1547665292   -2.3349805582   -0.0788828596
H       -0.5907805266   -1.4576802883   -1.4428884470
H        2.9326288498    1.2939507178    0.5850273248
H        3.5871710244    0.2850597017   -0.6911184867
18   
Generated by ForceBalance from scan.xyz: Frame 11 of 24
C        2.0396627287   -0.7140628447    0.3545859393
C        4.3410974075   -0.1726058690    1.2772810232
C        0.8232665568    0.7961092249   -1.2224126815
C       -0.1822144692   -1.3170718792   -0.4535883942
C        3.2232756287    0.2556919287    0.3261829671
N        1.0030425890   -0.4678415809   -0.5212574799
O        2.0362171091   -1.6921378627    1.1042287034
H        3.9792453547   -0.2263342523    2.3068305379
H        5.1686768415    0.5431044518    1.2329124316
H        4.7206245489   -1.1629744149    1.0143815609
H        0.2347339582    1.5130478238   -0.6309013244
H        0.2891181453    0.6135786307   -2.1603240648
H        1.7797153914    1.2539594414   -1.4711312638
H       -0.9906076756   -0.8281740226    0.1080700086
H        0.0778520440   -2.2483191830    0.0464489186
H       -0.5409736095   -1.5291097322   -1.4666137327
H        2.8705210916    1.2610830105    0.5881961108
H        3.6050783265    0.3263162403   -0.6995793866
18   
Generated by ForceBalance from scan.xyz: Frame 12 of 24
C        2.0729948365   -0.7368084755    0.4333829082
C        4.3942686627   -0.1862904656    1.2973669999
C        0.8058480344    0.7345868900   -1.1661866251
C       -0.1720575940   -1.3553076797   -0.3196730951
C        3.2385874657    0.2560082812    0.3989468366
N        0.9647737572   -0.4430272384   -0.3282313107
O        2.1332483849   -1.7586524799    1.1208117717
H        4.0720591534   -0.2667779698    2.3383588983
H        5.2142110830    0.5372557600    1.2392203749
H        4.7698988018   -1.1671941146    0.9969250277
H       -0.0446469440    1.3397067903   -0.8244828860
H        0.6134853950    0.4399666903   -2.2062374510
H        1.6948982404    1.3607467514   -1.1519386349
H       -1.0729424785   -0.8402977746    0.0380691839
H        0.0522693418   -2.1915041738    0.3401603679
H       -0.3681002468   -1.7319823243   -1.3317607955
H        2.8804915165    1.2457467890    0.7073910022
H        3.5884367047    0.3662675851   -0.6348841275
18   
Generated by ForceBalance from scan.xyz: Frame 13 of 24
C        2.0480048707   -0.8347256519    0.5201459383
C        4.4008224828   -0.3103024130    1.3140405416
C        0.8131832373    0.6094073824   -1.1037490891
C       -0.2028282365   -1.4438077333   -0.1984555411
C        3.2093091818    0.1612306115    0.4800686071
N        0.8891213115   -0.4771622559   -0.1367328703
O        2.1382579766   -1.8925148931    1.1458802621
H        4.1175842718   -0.4434281111    2.3609590161
H        5.2120516017    0.4233053037    1.2608969889
H        4.7740157936   -1.2719541476    0.9538299429
H       -0.2052240589    1.0107365897   -1.1136252623
H        1.0537177903    0.2695952976   -2.1220440886
H        1.4864781218    1.4244597892   -0.8417722946
H       -1.1594872284   -0.9268592994   -0.0663010838
H       -0.0699340214   -2.1787260257    0.5934554687
H       -0.2183805262   -1.9654738331   -1.1657204361
H        2.8583672771    1.1365481834    0.8386154045
H        3.5160841856    0.3139111249   -0.5622619186
18   
Generated by ForceBalance from scan.xyz: Frame 14 of 24
C        2.1005181260   -0.8766282257    0.4266208411
C        4.4063691732   -0.3206384833    1.3291556889
C        0.7975155763    0.5912882031   -1.0979015668
C       -0.1872636539   -1.4456319387   -0.1441292989
C        3.2314417770    0.1528953752    0.4724762083
N        0.8847158548   -0.4528673218   -0.0814611740
O        2.2427252583   -2.0038392662    0.9004906688
H        4.0928110199   -0.4950348439    2.3617889085
H        5.2011063956    0.4325751089    1.3288151846
H        4.8128485640   -1.2605986283    0.9492367818
H       -0.2054542720    1.0284727930   -1.0811189035
H        0.9804533829    0.1940234350   -2.1074806348
H        1.5110485402    1.3918066631   -0.9049942296
H       -1.1510523852   -0.9276881493   -0.1364974553
H       -0.1180565470   -2.1057639423    0.7190130045
H       -0.1226187460   -2.0591956572   -1.0539604974
H        2.8377296545    1.1030191053    0.8510391840
H        3.5743762125    0.3514099565   -0.5514297607
18   
Generated by ForceBalance from scan.xyz: Frame 15 of 24
C        2.1591261351   -0.8512593957    0.3148465617
C        4.3921041118   -0.2847392903    1.3760793004
C        0.7815174337    0.6037009705   -1.1207550069
C       -0.1581930296   -1.3982174573   -0.0805777712
C        3.2602325619    0.2002557959    0.4677483823
N        0.8985771330   -0.3841770991   -0.0467469988
O        2.3434823477   -2.0247446734    0.6303307658
H        4.0227394601   -0.4951115058    2.3837452507
H        5.1739185408    0.4785406508    1.4457452091
H        4.8331137517   -1.2062395190    0.9900630202
H       -0.1974096651    1.0891282937   -1.0640464946
H        0.8781838209    0.1365456421   -2.1120810192
H        1.5437148216    1.3774851068   -1.0250042124
H       -1.1267011731   -0.8900686124   -0.0985045311
H       -0.0909273038   -2.0237818888    0.8087445059
H       -0.0800644907   -2.0489012648   -0.9629076780
H        2.8199790206    1.1257203012    0.8533157405
H        3.6647229933    0.4408044251   -0.5245535700
18   
Generated by ForceBalance from scan.xyz: Frame 16 of 24
C        2.3032787760   -0.9452207147   -0.1059467653
C        4.1442976189   -0.2940209755    1.4611555154
C        0.6479548735    0.5943731410   -1.0613948045
C       -0.0411348227   -1.4886356082   -0.0163259307
C        3.4198326891    0.0627811042    0.1526604629
N        0.9941917438   -0.4513644697   -0.0916217322
O        2.5392421235   -2.1504278834   -0.1213472554
H        3.4611002716   -0.2317981742    2.3145456105
H        4.9732348206    0.3989447676    1.6369026003
H        4.5395121384   -1.3110628044    1.4127225481
H       -0.2599986039    1.1120342335   -0.7372108564
H        0.4678699554    0.1671844983   -2.0586961988
H        1.4479779021    1.3316679831   -1.1430641250
H       -0.9963337730   -1.0043984410    0.2066735435
H        0.2038225389   -2.1919162016    0.7794905641
H       -0.1352743420   -2.0530493034   -0.9541503173
H        3.0340323660    1.0834280626    0.2093259320
H        4.1306436564    0.0182671107   -0.6803143698
18   
Generated by ForceBalance from scan.xyz: Frame 17 of 24
C        2.4999301780   -0.9434849242   -0.2060225182
C        4.0542609888   -0.3145925991    1.6292970832
C        0.7627698092    0.5886314700   -0.9490690380
C        0.1831462547   -1.4767544415    0.1645463446
C        3.6449568829   -0.0165786392    0.1748235387
N        1.2036948549   -0.4285133738    0.0186542248
O        2.6994994621   -2.1295102469   -0.4408805525
H        3.2197246817   -0.1307716331    2.3130509765
H        4.8891508919    0.3275884242    1.9271081143
H        4.3655445700   -1.3574682935    1.7331277385
H       -0.1307701038    1.0922628419   -0.5685039318
H        0.5235320890    0.1379442834   -1.9235166747
H        1.5392301100    1.3426981168   -1.0971725250
H       -0.7414724934   -1.0055260484    0.5108933843
H        0.5128872333   -2.2072202227    0.9041849857
H       -0.0146049518   -2.0078403682   -0.7765030583
H        3.3604866686    1.0357138606    0.0845861970
H        4.4879435752   -0.2066667330   -0.4957686695
18   
Generated by ForceBalance from scan.xyz: Frame 18 of 24
C        2.5495590059   -0.8526986989   -0.3095979672
C        3.9949449938   -0.3750978294    1.6531089528
C        0.7348830862    0.5666789273   -1.0022433148
C        0.2836140166   -1.4239421430    0.2721601762
C        3.7039501964   -0.0019627651    0.1868859432
N        1.2570196243   -0.3447787761    0.0325040993
O        2.7183339351   -1.9833965924   -0.7408358247
H        3.1191642238   -0.1879172563    2.2813391822
H        4.8273110084    0.2233802064    2.0362726092
H        4.2652604060   -1.4317956218    1.7355883692
H       -0.1764014705    1.0475587945   -0.6348511333
H        0.5023934576    0.0319403247   -1.9355101645
H        1.4657494173    1.3507211333   -1.2227061155
H       -0.6324161306   -0.9718480917    0.6642665270
H        0.6819231102   -2.1162499497    1.0164391281
H        0.0435261206   -1.9946370739   -0.6351850334
H        3.4561686172    1.0627894928    0.1257905641
H        4.5823316173   -0.1970032889   -0.4343950121
18   
Generated by ForceBalance from scan.xyz: Frame 19 of 24
C        2.3419436597    0.1229811740    0.0720481682
C        4.4083903118   -0.6072315071    1.3723892487
C       -0.0572033775   -0.0779182281    0.1029285831
C        1.1990197190   -1.3845408936   -1.5013762483
C        3.2391555478   -1.0402949935    0.4895391450
N        1.1786916650   -0.1679952186   -0.6869007608
O        2.5069390904    1.2446933616    0.5283351535
H        5.0574331626    0.0950668068    0.8424408039
H        5.0047014948   -1.4770221363    1.6666640069
H        4.0528679250   -0.1041648517    2.2746672657
H       -0.1822690962   -0.9542419072    0.7606703630
H       -0.9189558028   -0.0255670915   -0.5695423411
H       -0.0356082304    0.8284754630    0.7089853755
H        1.1377020432   -2.3150010414   -0.9125867766
H        2.0997576299   -1.4154367446   -2.1183096547
H        0.3390420740   -1.3600005589   -2.1775466595
H        3.6044069861   -1.5852712343   -0.3879188568
H        2.5874698019   -1.7498845833    1.0191457785
18   
Generated by ForceBalance from scan.xyz: Frame 20 of 24
C        2.3208287089    0.0781074989    0.1628969528
C        4.4553207392   -0.6086612428    1.3662800590
C       -0.0968532766    0.0041017673    0.0526028397
C        1.1872737147   -1.4482344736   -1.4117601392
C        3.3143622413   -1.0472881469    0.4495925152
N        1.1902301684   -0.2218372268   -0.6156758702
O        2.4124852452    1.1609590020    0.7302357427
H        5.0348695528    0.1975924904    0.9089798797
H        5.1265890452   -1.4505503320    1.5649152398
H        4.0712712617   -0.2335835856    2.3177339231
H       -0.3653825471   -0.8529143386    0.6902510068
H       -0.8854847807    0.1423270067   -0.6936621558
H       -0.0317883927    0.9042159955    0.6631980181
H        1.0683007866   -2.3625314073   -0.8077567494
H        2.1040238919   -1.5302561571   -1.9982233647
H        0.3511412669   -1.4011180352   -2.1156820528
H        3.7159779768   -1.4618701372   -0.4819588908
H        2.7360303496   -1.8628197024    0.9051529404
18   
Generated by ForceBalance from scan.xyz: Frame 21 of 24
C        2.3014950050    0.0313785874    0.2422580402
C        4.4907708991   -0.6062864234    1.3631258889
C       -0.1168627025    0.0799350857    0.0021589204
C        1.1663581949   -1.5155552814   -1.3231669928
C        3.3861492871   -1.0350963798    0.3980999629
N        1.1938501730   -0.2796752093   -0.5457625502
O        2.3408238153    1.0739066655    0.8913317791
H        4.9904883192    0.2980824037    1.0069863282
H        5.2364929008   -1.4020209593    1.4612555034
H        4.0826229074   -0.3838282021    2.3518698878
H       -0.5178883369   -0.7393481441    0.6175407059
H       -0.8219711157    0.2828821912   -0.8103516958
H       -0.0142688927    0.9754607831    0.6132246853
H        0.9694456334   -2.4073418723   -0.7070337019
H        2.1043634224   -1.6605825090   -1.8602377525
H        0.3692296481   -1.4401633019   -2.0685936396
H        3.8191268351   -1.2891176279   -0.5767733702
H        2.8945362181   -1.9517380969    0.7490995903
18   
Generated by ForceBalance from scan.xyz: Frame 22 of 24
C        2.2615774164   -0.0385487558    0.3369336741
C        4.5172706545   -0.6038522833    1.3553064361
C       -0.1401032674    0.1236383166   -0.0496810947
C        1.1358909773   -1.5912899665   -1.2449027146
C        3.4281532301   -1.0272043716    0.3699720199
N        1.1764760485   -0.3608341438   -0.4631952005
O        2.2570655210    0.9626956950    1.0522716554
H        4.9307439396    0.3708156815    1.0849651842
H        5.3284513643   -1.3393380598    1.3601968518
H        4.1167162787   -0.5169024273    2.3681825467
H       -0.6731515040   -0.6478128212    0.5245654500
H       -0.7409473911    0.3816439553   -0.9282444943
H       -0.0129871995    1.0100729806    0.5694690183
H        0.8620138175   -2.4688713564   -0.6388617287
H        2.0943468533   -1.7847358365   -1.7267888806
H        0.3866661625   -1.4807330429   -2.0344821970
H        3.8557086242   -1.1369346943   -0.6342812732
H        3.0303656721   -2.0153723032    0.6332487271
18   
Generated by ForceBalance from scan.xyz: Frame 23 of 24
C        2.2372696974   -0.1094061224    0.4171727667
C        4.5667556098   -0.5816425500    1.3069494164
C       -0.1234133582    0.1944058342   -0.1231759376
C        1.1168923218   -1.6369612172   -1.2057266829
C        3.4675100656   -1.0153485578    0.3372029617
N        1.1701862719   -0.4242312471   -0.3997593879
O        2.1993486460    0.8459950212    1.1941675840
H        4.8969109340    0.4376357820    1.0926582747
H        5.4276623996   -1.2535052117    1.2264680400
H        4.2065106093   -0.5959809448    2.3384608654
H       -0.7751755967   -0.4926557964    0.4347387867
H       -0.6195472233    0.4594725302   -1.0630322528
H        0.0350830328    1.0932556997    0.4700419095
H        0.7671361545   -2.5064932429   -0.6290248522
H        2.0907685849   -1.8725619674   -1.6342835181
H        0.4204675286   -1.4803594387   -2.0349092058
H        3.8531673575   -1.0190639254   -0.6898032543
H        3.1586192905   -2.0472502326    0.5458223737
18   
Generated by ForceBalance from scan.xyz: Frame 24 of 24
C        2.2175207112   -0.1563322422    0.5064723168
C        4.6287880502   -0.4671837822    1.2324475973
C       -0.1154765075    0.2363830907   -0.1197667995
C        1.0687770777   -1.6444497544   -1.1666072573
C        3.4980520718   -0.9797861012    0.3396051395
N        1.1242271965   -0.5197526381   -0.2468229750
O        2.1779555545    0.7993664893    1.2845463165
H        4.8675184008    0.5738754646    1.0025168358
H        5.5283109866   -1.0743718015    1.0861380415
H        4.3449581612   -0.5101395664    2.2866736039
H       -0.9264459275   -0.4130899916    0.2345987059
H       -0.4076141156    0.6554355841   -1.0910861216
H        0.0365238865    1.0450315404    0.5928830580
H        0.3389938607   -2.3906653989   -0.8238475085
H        2.0354319215   -2.1332081199   -1.2621861858
H        0.7599438717   -1.3043467228   -2.1636083172
H        3.8092305585   -0.9538761136   -0.7118922559
H        3.2854664359   -2.0309028967    0.5698524494
