36

C     -0.13277    2.03815   -1.96754
C      2.14492    2.70386   -2.07738
C     -2.11341    0.63021   -1.72122
C      4.92030    0.62154   -6.44140
C     -2.27252    3.06686   -1.40571
C     -2.25400   -1.68269   -2.42344
C     -1.22595   -0.04526   -3.96208
C      4.52998    2.02140   -5.95473
C      4.34216    2.07824   -4.43141
C      3.96007    3.47855   -3.95962
N      0.69788    1.01549   -1.99343
N      2.00791    1.41741   -2.05562
N     -1.50518    1.92661   -1.92935
N     -1.87478   -0.29770   -2.68328
O     -2.84117    0.45695   -0.74833
O      3.36022    5.03511   -1.83044
S      0.64903    3.62097   -1.99596
S      3.72711    3.59155   -2.12534
H      4.15508   -0.11624   -6.17528
H      5.04303    0.60033   -7.52920
H      5.86502    0.29606   -5.99168
H     -2.10994    3.93796   -2.04716
H     -1.98893    3.30833   -0.37630
H     -3.32883    2.80675   -1.42233
H     -3.03404   -2.00443   -3.12384
H     -2.63293   -1.76738   -1.40687
H     -1.37913   -2.33137   -2.54574
H     -0.18971   -0.39800   -3.95468
H     -1.23590    1.01978   -4.19101
H     -1.78330   -0.57122   -4.74484
H      5.29786    2.74474   -6.25713
H      3.60006    2.33578   -6.44573
H      3.57255    1.35998   -4.13034
H      5.27021    1.76517   -3.93707
H      4.75416    4.20868   -4.14970
H      3.03654    3.85000   -4.41450
