19   

C        2.1669844069   -0.4886608213   -0.0248815784
C        0.8667113014   -0.3836811715    0.4525749800
C        3.1484871553   -1.0994346769    0.7574983508
C        0.5593185886   -0.8886336089    1.7143451699
C        3.8455131921   -3.0607918291    3.9268733746
C        6.1165438615   -2.6574087080    3.1788723780
C        2.8595678527   -1.6261686417    2.0394869149
C        1.5354982797   -1.5023338787    2.5111865296
C        3.9436541638   -2.2531196598    2.8176715337
N        5.2559536655   -2.0428233336    2.4045458545
O        1.1466741875   -1.9387078647    3.7453581807
S        5.4110954205   -3.5709784653    4.4987551036
H        2.4214304250   -0.0966783394   -1.0030922355
H        0.1007416039    0.0907836865   -0.1511815757
H        4.1510948231   -1.1634318919    0.3488387907
H       -0.4570028574   -0.7933877181    2.0757205268
H        2.9212577068   -3.3669148264    4.3937095605
H        7.1866574449   -2.6075350607    3.0149366101
H        0.2151634383   -1.7094758670    3.9018215781
19   

C        2.1435345174   -0.5683055614   -0.0585944503
C        0.8649742877   -0.3925456710    0.4602657152
C        3.1269261308   -1.1930620359    0.7110946909
C        0.5807464688   -0.8387387620    1.7508487838
C        3.8234087320   -3.2202599412    3.7911324077
C        6.1011831083   -2.5354376360    3.3017743474
C        2.8553042259   -1.6653321477    2.0135402712
C        1.5598704631   -1.4652098420    2.5330394600
C        3.9427949656   -2.2888855373    2.7904260251
N        5.2532108141   -1.9092502586    2.5217701331
O        1.2180705654   -1.8459713963    3.8001376595
S        5.3794262179   -3.6593159789    4.4423767830
H        2.3791734016   -0.2182596814   -1.0571960854
H        0.0985152381    0.0937430537   -0.1333672211
H        4.1182089307   -1.3139511108    0.2871969837
H       -0.4160884860   -0.6867208546    2.1455020753
H        2.8836997286   -3.6345805949    4.1289840800
H        7.1713048940   -2.3732201359    3.2465114394
H        0.3158772853   -1.5490886635    4.0064005592
19   

C        2.1117178169   -0.6271340381   -0.0851522850
C        0.8596853901   -0.3832608106    0.4737896041
C        3.0969410797   -1.2691024224    0.6686929441
C        0.6036015810   -0.7769181850    1.7885082793
C        3.8161232189   -3.3500260339    3.6509901927
C        6.0543379862   -2.4237950071    3.4472781658
C        2.8463203669   -1.6940259874    1.9875803346
C        1.5852664876   -1.4203775326    2.5526846005
C        3.9396097116   -2.3151981969    2.7622582456
N        5.2205586247   -1.7880727791    2.6590529346
O        1.2897271010   -1.7619931720    3.8427554228
S        5.3477804979   -3.7280533495    4.3919917902
H        2.3252817826   -0.3139043619   -1.1007923443
H        0.0926825462    0.1169717059   -0.1074167687
H        4.0740226328   -1.4398762464    0.2290328741
H       -0.3703962656   -0.5715286630    2.2147159906
H        2.8813174663   -3.8508263427    3.8645246696
H        7.1044974854   -2.1641968387    3.5129746428
H        0.4178544472   -1.4116523690    4.0907787779
19   

C        2.0835798159   -0.6760850964   -0.1005777656
C        0.8616708281   -0.3719063676    0.4972815541
C        3.0776123072   -1.3230719766    0.6379955038
C        0.6440486750   -0.7094875116    1.8353088764
C        3.8549086453   -3.4623735241    3.4856039082
C        6.0046945709   -2.3322403256    3.6156755902
C        2.8593909276   -1.6939537230    1.9760559761
C        1.6346546934   -1.3581410415    2.5827173849
C        3.9601996289   -2.3158469467    2.7465701108
N        5.1844305678   -1.6688644254    2.8359197104
O        1.3888773232   -1.6579936203    3.8933666529
S        5.3483452081   -3.8075116573    4.3153982448
H        2.2666292154   -0.4044721732   -1.1340055354
H        0.0884856125    0.1321639998   -0.0722972648
H        4.0349376646   -1.5389676698    0.1756246090
H       -0.3052980501   -0.4581515392    2.2914427485
H        2.9498263364   -4.0512045346    3.5519322226
H        7.0149933045   -1.9955224019    3.8168072619
H        0.5452969447   -1.2666784794    4.1750058839
19   

C        2.0515100712   -0.7302629211   -0.1250144787
C        0.8616680824   -0.3594218721    0.5012455450
C        3.0523130240   -1.3744808839    0.6073832477
C        0.6811629833   -0.6295618323    1.8605685982
C        3.9143101548   -3.5736405406    3.2566611721
C        5.9224921307   -2.3052393856    3.7860901851
C        2.8696401018   -1.6710326223    1.9676633929
C        1.6780546159   -1.2756505601    2.6013596980
C        3.9665434874   -2.3096999314    2.7380638445
N        5.1076812493   -1.5869788673    3.0506410465
O        1.4734960825   -1.5232614585    3.9296716674
S        5.3608185176   -3.9309235294    4.1613345889
H        2.2034032430   -0.5132898288   -1.1762613704
H        0.0836752958    0.1421889592   -0.0639461986
H        3.9843624301   -1.6454066104    0.1233102608
H       -0.2438965913   -0.3305082588    2.3373335342
H        3.0720360936   -4.2403415129    3.1298237812
H        6.8743988863   -1.9254809345    4.1384966936
H        0.6554663366   -1.0940788600    4.2301204593
19   

C        1.9971452185   -0.8307688270   -0.1428259748
C        0.8440641020   -0.3838365112    0.5031776345
C        3.0098569035   -1.4538284288    0.5916949981
C        0.7088109293   -0.5621828423    1.8830680230
C        4.0408666538   -3.6378948200    2.9839147702
C        5.8406379940   -2.3042903820    3.9369243273
C        2.8781835428   -1.6409143705    1.9766401346
C        1.7169939043   -1.1868164688    2.6268477622
C        3.9672859016   -2.2933378156    2.7492391525
N        4.9962522580   -1.5378159956    3.2890694381
O        1.5526959820   -1.3594000725    3.9724083552
S        5.4534190102   -4.0218767117    3.9305515109
H        2.1097667969   -0.6911186227   -1.2119903816
H        0.0571801566    0.1014776920   -0.0639356254
H        3.9100766415   -1.7908930174    0.0895285480
H       -0.1910619242   -0.2119745423    2.3730207686
H        3.3076227181   -4.3514380982    2.6329490856
H        6.7172362698   -1.9097095710    4.4373269598
H        0.7585987510   -0.8914269895    4.2782462026
19   

C        1.9282064015   -0.9457483939   -0.1465602181
C        0.8174904944   -0.4161862228    0.5105672933
C        2.9495723941   -1.5519247359    0.5898793581
C        0.7301425941   -0.5008535285    1.9029779613
C        4.2055928516   -3.6350450851    2.7254240674
C        5.7566880759   -2.3160195795    4.0593880373
C        2.8753465032   -1.6291669692    1.9902385441
C        1.7468023918   -1.1080356186    2.6498544149
C        3.9591757243   -2.2904790903    2.7581762694
N        4.8570645726   -1.5413047855    3.5026292095
O        1.6182608482   -1.2003113169    4.0071318350
S        5.5969255489   -4.0316218059    3.6980200011
H        2.0003387778   -0.8845361364   -1.2265521118
H        0.0240155609    0.0566118159   -0.0579418709
H        3.8137658127   -1.9575289308    0.0753448118
H       -0.1411710265   -0.0943015118    2.4009685902
H        3.6066449860   -4.3446927800    2.1707604782
H        6.5477104256   -1.9275672434    4.6901762769
H        0.8525856851   -0.6861601393    4.3103022066
19   

C        1.8595713067   -1.0477238133   -0.1418157626
C        0.7928581944   -0.4433794585    0.5219158616
C        2.8861445358   -1.6478024266    0.5918271590
C        0.7533346546   -0.4501073879    1.9184270621
C        4.3647372044   -3.5875984778    2.5345354520
C        5.6661716548   -2.3424550839    4.1706823869
C        2.8662811032   -1.6427521757    1.9977907942
C        1.7750061765   -1.0507923570    2.6642081135
C        3.9567111300   -2.2996638409    2.7525972833
N        4.7180897646   -1.5891791959    3.6682852435
O        1.6768541599   -1.0714230677    4.0269953340
S        5.7293874042   -3.9856599761    3.5436309497
H        1.8937444400   -1.0489787639   -1.2254190204
H       -0.0047630032    0.0253087075   -0.0441983777
H        3.7151532550   -2.1091786219    0.0666460326
H       -0.0871687898    0.0106407832    2.4221414922
H        3.8925538802   -4.2603631221    1.8314685298
H        6.3672007650   -1.9770777042    4.9119922902
H        0.9403175185   -0.5129678262    4.3227917279
19   

C        1.7954202611   -1.1381706735   -0.1359524622
C        0.7724362631   -0.4640436008    0.5264047619
C        2.8225481873   -1.7374906056    0.5966793886
C        0.7777243842   -0.4007451435    1.9209674842
C        4.4970037327   -3.5239307148    2.3968172364
C        5.5693458800   -2.4038923329    4.2699900611
C        2.8506293493   -1.6674839402    2.0033414641
C        1.7998531746   -1.0001818740    2.6679779281
C        3.9562470365   -2.3126776686    2.7405260045
N        4.5880996783   -1.6747531811    3.7975188343
O        1.7244114537   -0.9486009194    4.0313561257
S        5.8274178351   -3.9357809075    3.4452795632
H        1.7964353427   -1.1930128365   -1.2187250113
H       -0.0259825816    0.0047015884   -0.0385510724
H        3.6175062899   -2.2457781009    0.0627328751
H       -0.0309499441    0.1139852299    2.4245208159
H        4.1344717372   -4.1429484542    1.5875751739
H        6.1829107392   -2.0828838854    5.1036288761
H        1.0095811345   -0.3551772228    4.3107212150
19   

C        1.7319743374   -1.2155370109   -0.1149437916
C        0.7460285610   -0.4880208175    0.5430006256
C        2.7646984799   -1.8069865739    0.6152207172
C        0.7962276431   -0.3622275517    1.9309215802
C        4.6333253099   -3.4272794468    2.2960527924
C        5.4841107310   -2.4758151285    4.3630157027
C        2.8386540050   -1.6842870509    2.0199404236
C        1.8242885417   -0.9527560100    2.6779826754
C        3.9683649781   -2.3099472105    2.7363910260
N        4.4733464975   -1.7747401751    3.9121727520
O        1.7721532317   -0.8252045605    4.0373611382
S        5.9292059557   -3.8612476361    3.3783074558
H        1.7014987316   -1.3168244438   -1.1939557200
H       -0.0572151859   -0.0247034207   -0.0196095298
H        3.5286994875   -2.3477543041    0.0694375657
H        0.0157976968    0.1968444072    2.4317750087
H        4.3771250366   -3.9810809146    1.4037833928
H        6.0106047438   -2.2176301312    5.2743820757
H        1.0635842447   -0.2158256404    4.2965008800
19   

C        1.6720255433   -1.2957501550   -0.0962645929
C        0.7196259287   -0.5205366534    0.5520444709
C        2.7138021392   -1.8725872890    0.6318859206
C        0.8156948212   -0.3299854050    1.9283792606
C        4.7708555501   -3.3080012839    2.2146653615
C        5.3903693695   -2.5887995162    4.4473445043
C        2.8346265341   -1.6949446439    2.0310778532
C        1.8538211163   -0.9038042587    2.6755777406
C        3.9803939545   -2.3091725007    2.7348592227
N        4.3552206230   -1.9157162088    4.0113073160
O        1.8351957452   -0.6840593776    4.0238466192
S        6.0239182266   -3.7835268795    3.3294845114
H        1.6088870624   -1.4465025776   -1.1680829642
H       -0.0912444402   -0.0683750783   -0.0087243606
H        3.4418930321   -2.4479038579    0.0749738549
H        0.0627433544    0.2716157410    2.4219977004
H        4.6358455653   -3.7688859265    1.2473146873
H        5.8246577726   -2.4197653962    5.4257333166
H        1.1170186506   -0.0779400438    4.2624265999
19   

C        1.6188219762   -1.3746887324   -0.0698340998
C        0.6996165134   -0.5525251082    0.5659364357
C        2.6724575782   -1.9334013357    0.6549730238
C        0.8426652941   -0.2952912369    1.9262832526
C        4.9221542494   -3.1372737006    2.1610290018
C        5.2636927115   -2.7553280362    4.5308187053
C        2.8437008402   -1.6895366984    2.0406820030
C        1.8946340882   -0.8476209916    2.6708981702
C        3.9840958599   -2.3153326925    2.7462179541
N        4.2054504137   -2.1154235975    4.1015566806
O        1.9316185172   -0.5238151400    3.9975693706
S        6.1143216935   -3.6826261812    3.3102950468
H        1.5171508385   -1.5819733129   -1.1291883079
H       -0.1214057428   -0.1153338723    0.0080606121
H        3.3539695610   -2.5646603131    0.1016631609
H        0.1179702360    0.3481144121    2.4093863159
H        4.9448569092   -3.4274078649    1.1217841483
H        5.5898050996   -2.7150219142    5.5635053989
H        1.1942563101    0.0616310048    4.2286365711
19   

C        1.5755821927   -1.4586029648   -0.0466660305
C        0.6883507414   -0.5880363247    0.5724085675
C        2.6399802373   -1.9992165203    0.6765513601
C        0.8749657936   -0.2620734040    1.9135829454
C        5.0439070095   -2.9389805115    2.1382187631
C        5.1402235266   -2.9386514335    4.5624516822
C        2.8524463632   -1.6844867359    2.0402538617
C        1.9398169773   -0.7938169836    2.6542735456
C        3.9818756343   -2.3175588396    2.7538159092
N        4.0602336826   -2.3312744354    4.1388685593
O        2.0525414723   -0.3815726378    3.9518926783
S        6.1827563745   -3.5673053737    3.2989778713
H        1.4365485562   -1.7223718845   -1.0890684202
H       -0.1415992510   -0.1660817202    0.0160271489
H        3.2881427318   -2.6900644544    0.1532195899
H        0.1792789803    0.4228408909    2.3820185125
H        5.1845961487   -3.0195454397    1.0704491694
H        5.3725648437   -3.0463589536    5.6154670331
H        1.3049001357    0.1846837524    4.1977872698
19   

C        2.0375843467   -0.4605570937    0.0385845537
C        0.7798664854   -0.3356381513    0.6189669802
C        3.0743874419   -1.0694009746    0.7483809138
C        0.5689012654   -0.8158219698    1.9111082977
C        5.3266666441   -1.9329386959    2.5162262745
C        4.9375992795   -3.6934699027    4.1442838789
C        2.8792801933   -1.5699764579    2.0541494782
C        1.6001353876   -1.4262038984    2.6375555159
C        4.0058221477   -2.2274820184    2.7466454074
N        3.8026419027   -3.2410719359    3.6713969207
O        1.3246256498   -1.8230478622    3.9156483777
S        6.3768723676   -2.9277988950    3.4889681373
H        2.2097251074   -0.0915331804   -0.9662242990
H       -0.0295892334    0.1345156355    0.0711258463
H        4.0355132398   -1.1706960887    0.2584950996
H       -0.4118392683   -0.7014448718    2.3555775549
H        5.6744419549   -1.1695507385    1.8344851260
H        4.9857785783   -4.4854948498    4.8824023269
H        0.3783046131   -1.7293712297    4.1060849621
19   

C        2.0238207538   -0.5517687821   -0.0101081721
C        0.7817709821   -0.3668873019    0.5921676656
C        3.0620478127   -1.1523174703    0.7056987624
C        0.5875045043   -0.7763520004    1.9125319353
C        5.3007152801   -1.7999489093    2.6560536995
C        4.9480641690   -3.7767794970    4.0275789757
C        2.8761670080   -1.5861203729    2.0330091111
C        1.6211216055   -1.3768272286    2.6427084933
C        3.9996448211   -2.2186634689    2.7538679696
N        3.8134622705   -3.3577751392    3.5227665322
O        1.3867456190   -1.7103402731    3.9469276318
S        6.3598954056   -2.8249588907    3.5868512982
H        2.1823358458   -0.2342440172   -1.0345378765
H       -0.0279704597    0.0970071630    0.0394556336
H        4.0175548504   -1.3003129363    0.2152773624
H       -0.3784597321   -0.6139516545    2.3740630576
H        5.6202417477   -0.9396511229    2.0839714835
H        5.0133075358   -4.6513415016    4.6642463453
H        0.4462235712   -1.6069889485    4.1611992794
19   

C        1.9987954602   -0.6498809506   -0.0469688845
C        0.7807878951   -0.3910170062    0.5799774796
C        3.0374463955   -1.2492921137    0.6700236665
C        0.6102478911   -0.7251542969    1.9257500738
C        5.2498162324   -1.6930093892    2.8215316153
C        4.9785181179   -3.8552728028    3.9041571739
C        2.8697709514   -1.6077844189    2.0193097981
C        1.6449220078   -1.3236910473    2.6551628275
C        3.9906741597   -2.2258010665    2.7621589508
N        3.8499678210   -3.4689838448    3.3602466551
O        1.4505149704   -1.5965013083    3.9799346409
S        6.3260419800   -2.7406363751    3.7065249121
H        2.1383235278   -0.3893023596   -1.0900406655
H       -0.0284868640    0.0722227750    0.0260484424
H        3.9787983663   -1.4529754443    0.1717176851
H       -0.3357563531   -0.5067615273    2.4051683415
H        5.5266924079   -0.7456171360    2.3791962594
H        5.0776677792   -4.7978818656    4.4296480826
H        0.5204761504   -1.4605658920    4.2216038376
19   

C        1.9666160322   -0.7590192520   -0.0876753738
C        0.7777870874   -0.4200473182    0.5586134147
C        3.0063310015   -1.3527885470    0.6330385364
C        0.6361932036   -0.6711816941    1.9262521500
C        5.1633914368   -1.5976589319    3.0339371764
C        5.0290305319   -3.9134192604    3.7717291486
C        2.8668449360   -1.6203856579    2.0047082277
C        1.6725214247   -1.2635770587    2.6578070826
C        3.9855171922   -2.2360653805    2.7606188658
N        3.9215553936   -3.5605277351    3.1647263900
O        1.5137625469   -1.4699033218    3.9992435392
S        6.2592409057   -2.6585635916    3.8781051867
H        2.0826589154   -0.5648436495   -1.1479403602
H       -0.0317530798    0.0391463981    0.0017199057
H        3.9267765184   -1.6195548511    0.1253908640
H       -0.2878286130   -0.3952978177    2.4187350454
H        5.3706746907   -0.5715902323    2.7615299824
H        5.1803129987   -4.9091104775    4.1720026077
H        0.5978417098   -1.2865453089    4.2637994712
19   

C        1.9275147128   -0.8780651020   -0.1229680336
C        0.7746366103   -0.4544951393    0.5389357925
C        2.9746969572   -1.4541073544    0.6015343219
C        0.6739902860   -0.6092993919    1.9246066350
C        5.0344638639   -1.5357161842    3.3047843161
C        5.0908837994   -3.9460582371    3.6409161051
C        2.8824623781   -1.6076483833    1.9937801459
C        1.7184311544   -1.1834384250    2.6589806755
C        3.9972624715   -2.2333371132    2.7517472240
N        4.0352778011   -3.6058348908    2.9408208167
O        1.5982832568   -1.3109380297    4.0141984305
S        6.1371854411   -2.6129745458    4.1186570788
H        2.0094525175   -0.7648868929   -1.1980375683
H       -0.0403157328   -0.0085853471   -0.0208420310
H        3.8655611163   -1.7925567115    0.0838551519
H       -0.2252739776   -0.2758606181    2.4272137843
H        5.1359114441   -0.4604169571    3.2464214836
H        5.3068845084   -4.9750972463    3.9034871396
H        0.6982147714   -1.0800014009    4.2964593807
19   

C        1.8839732765   -0.9845416800   -0.1380408802
C        0.7671170266   -0.4819163368    0.5294109543
C        2.9397568547   -1.5385146056    0.5909611326
C        0.7090198520   -0.5417880524    1.9245512956
C        4.8740494266   -1.5518146622    3.5669455233
C        5.1601551259   -3.9671174429    3.4863972341
C        2.9000273873   -1.5809635377    1.9938930511
C        1.7627685086   -1.0938961785    2.6626528570
C        4.0094630124   -2.2203129983    2.7454646706
N        4.1693332474   -3.5971346177    2.7104604217
O        1.6754268298   -1.1411902939    4.0256336545
S        5.9832287280   -2.6592488338    4.3296976378
H        1.9307526848   -0.9523323709   -1.2206506842
H       -0.0546643589   -0.0528689068   -0.0335443959
H        3.7991942812   -1.9458265392    0.0695122083
H       -0.1663314432   -0.1548387006    2.4310125281
H        4.8455666658   -0.4822553121    3.7258053416
H        5.4520986508   -5.0044992678    3.6010370414
H        0.7899520757   -0.8668732182    4.3160221752
19   

C        1.8661871274   -1.0519511659   -0.1394412630
C        0.7801332450   -0.4775515506    0.5190306578
C        2.9192094797   -1.5968087571    0.5997801376
C        0.7496370599   -0.4592866954    1.9155960901
C        4.7294117232   -1.6236004406    3.7640596731
C        5.2585328466   -3.9561678478    3.3226070279
C        2.9133908422   -1.5578393019    2.0047734382
C        1.8007401122   -1.0028698868    2.6641801094
C        4.0132735737   -2.2063006718    2.7544126991
N        4.3103826039   -3.5406842167    2.5168128188
O        1.7264954335   -0.9792800212    4.0287512244
S        5.8691086230   -2.7502534591    4.4494633575
H        1.8912476735   -1.0838907216   -1.2227722392
H       -0.0400829680   -0.0555336918   -0.0514675660
H        3.7525674065   -2.0620482045    0.0840898400
H       -0.1045736380   -0.0199501661    2.4153895704
H        4.5788031040   -0.6045204385    4.0943436102
H        5.6386137782   -4.9707976507    3.2980818115
H        0.8541829886   -0.6586561359    4.3122081845
19   

C        1.8463185168   -1.1068914612   -0.1407506804
C        0.7902485148   -0.4630403221    0.4992824049
C        2.8881037219   -1.6521776857    0.6131848091
C        0.7793729576   -0.3757160847    1.8925806256
C        4.6018678000   -1.7062923805    3.8997890519
C        5.3779329366   -3.8937669795    3.1774668999
C        2.9038884267   -1.5510405945    2.0175953122
C        1.8188613394   -0.9201350578    2.6572641841
C        3.9978860273   -2.1954652065    2.7720167351
N        4.4428247271   -3.4490842495    2.3721973756
O        1.7458396616   -0.8284334847    4.0190954769
S        5.8006397362   -2.8183877222    4.5032441634
H        1.8580563254   -1.1916943394   -1.2214531669
H       -0.0217411373   -0.0402933013   -0.0823399013
H        3.6978977915   -2.1656157988    0.1054763354
H       -0.0530582227    0.1178827090    2.3783050925
H        4.3497672944   -0.7570235568    4.3532136010
H        5.8565499955   -4.8559284105    3.0370610393
H        0.8896203628   -0.4528853599    4.2841771212
19   

C        1.8197019298   -1.1734795871   -0.1342035110
C        0.8021146178   -0.4578005235    0.4880055651
C        2.8456278009   -1.7320938704    0.6307975331
C        0.8152204071   -0.3111770196    1.8750205960
C        4.4937552382   -1.8274109226    4.0006180694
C        5.5080712306   -3.8230362119    3.0597159228
C        2.8852784093   -1.5821581813    2.0340514310
C        1.8383270413   -0.8688231825    2.6530040658
C        3.9770513763   -2.2214147237    2.7919360845
N        4.5700323002   -3.3641459487    2.2665726251
O        1.7672954661   -0.7126930010    4.0087040515
S        5.7639807058   -2.8970909201    4.5301347546
H        1.8161388932   -1.3016311546   -1.2106920679
H        0.0023181191   -0.0236586613   -0.1020646492
H        3.6253146543   -2.2906674191    0.1238170413
H        0.0116222026    0.2402744441    2.3469016452
H        4.1599877395   -0.9595285331    4.5521948297
H        6.0860178880   -4.7092995090    2.8251016128
H        0.9361972288   -0.2709542098    4.2511478465
19   

C        1.7713967553   -1.2483946883   -0.1249813432
C        0.7974794488   -0.4625396073    0.4780208673
C        2.7841633305   -1.8173965973    0.6490050335
C        0.8428688321   -0.2552353391    1.8551524905
C        4.3733253596   -1.9764789775    4.0880115429
C        5.6231102398   -3.7282809850    2.9704303693
C        2.8557750506   -1.6159827465    2.0485475311
C        1.8528328412   -0.8222540825    2.6444380713
C        3.9477419450   -2.2509626867    2.8090124676
N        4.6850494027   -3.2543645711    2.1872594916
O        1.7966866072   -0.5883939277    3.9886636277
S        5.7118427401   -2.9893239851    4.5580118639
H        1.7462903202   -1.4215159166   -1.1948821171
H        0.0080244009   -0.0189407978   -0.1189124543
H        3.5267111719   -2.4230611029    0.1409561520
H        0.0729661129    0.3540739708    2.3118424353
H        3.9541880497   -1.2197071951    4.7341652940
H        6.2973695284   -4.5178057398    2.6597371829
H        1.0028819184   -0.0705091580    4.2040924922
19   

C        1.6904796758   -1.3422050915   -0.1042462523
C        0.7646590435   -0.4925129036    0.4856443966
C        2.7059807097   -1.9085722680    0.6676018473
C        0.8634544955   -0.2161264090    1.8470696764
C        4.2373420819   -2.1651727070    4.1486917897
C        5.7281400939   -3.6102693645    2.9005254994
C        2.8292847410   -1.6439767760    2.0548688362
C        1.8779748236   -0.7775463467    2.6351328430
C        3.9262528502   -2.2756264943    2.8111664720
N        4.8000085815   -3.1118295343    2.1214577181
O        1.8832737719   -0.4405958985    3.9576894574
S        5.6381271920   -3.1102759414    4.5766708114
H        1.6265644276   -1.5668360852   -1.1629044394
H       -0.0264850060   -0.0497237469   -0.1096549326
H        3.4055395185   -2.5657763842    0.1629721123
H        0.1336706118    0.4485461235    2.2922885078
H        3.7008355726   -1.5738620727    4.8741250590
H        6.4958746939   -4.2827150151    2.5359881099
H        1.1472307446    0.1643647148    4.1501102772
