46   

C       -4.9403744313   -4.3088376700   -2.6846484639
C       -5.6851355973   -3.1485703644   -2.3945760266
C       -3.6476286649   -4.4724755429   -2.1582039435
C       -0.7755554657   -4.2021824780   -0.5910829792
C       -5.1407502645   -2.1404033874   -1.5807309835
C        0.3246658693   -3.8076680991    0.1929992750
C       -0.7798657657   -1.7168997996    0.7328748288
C       -3.1334618264   -3.4571273251   -1.3511399911
C       -1.8662642710   -3.3373796724   -0.6694098239
C       -3.8561884500   -2.3090082684   -1.0682213372
C       -1.8734765747   -2.1198290945   -0.0191556038
C        0.3263277284   -2.5699607264    0.8707681955
C       -0.1084061260   -3.1251394207    4.9941236752
C        0.2579546895   -2.4908658047    3.8338772789
C       -1.3307651384   -4.0965065751    5.1166006759
C        0.2191325726   -3.4650986515    7.4036663343
C       -1.0891899320   -1.5114280510    6.5967144020
C       -1.1592317736   -4.1512638339    7.5605126189
C       -2.3756190989   -2.3618439038    6.4404579435
C        0.1567256580   -2.3855064997    6.2995544750
C        1.4290192047   -2.8409161203    2.9444572364
N       -3.0904789394   -1.4686350679   -0.2488727090
N       -2.0041161370   -3.7964832204    6.4003591053
O        1.3860660293   -2.1891376706    1.6614123361
F       -0.3150327701   -1.2810304794    3.6272016817
H       -5.3677412694   -5.0789171333   -3.3164021346
H       -6.6833418601   -3.0305429559   -2.8010637313
H       -3.0652116061   -5.3599603129   -2.3721278252
H       -0.7819306794   -5.1504669083   -1.1145252293
H       -5.7058538110   -1.2456602207   -1.3523128922
H        1.1871538454   -4.4561688146    0.2780127611
H       -0.7878616365   -0.7559588879    1.2284643154
H       -2.0180942627   -3.9385559958    4.2781305591
H       -0.9936377071   -5.1379458172    5.0911500126
H        0.5207626436   -3.0332384153    8.3629554136
H        0.9709643864   -4.2081491439    7.1208815037
H       -1.1468655773   -0.6410125443    5.9366819481
H       -1.0173755270   -1.1348327059    7.6217139130
H       -1.0357788374   -5.2357069113    7.6456041532
H       -1.6475950478   -3.7978446505    8.4753144034
H       -3.0718042128   -2.1510243463    7.2587752414
H       -2.8789472089   -2.0964168591    5.5036294830
H        1.0776611787   -1.7940040376    6.2643759838
H        1.4528653422   -3.9255440116    2.8025886502
H        2.3537615048   -2.5593586401    3.4560732383
H       -3.3636306265   -0.5667551507    0.1232296486
46   

C       -5.0741983366   -4.2333190863   -2.3750208286
C       -5.7874168185   -3.0642715516   -2.0439800127
C       -3.7653297472   -4.4239644708   -1.9006435403
C       -0.8251651267   -4.2114497673   -0.4640819334
C       -5.1960661651   -2.0754149218   -1.2390017230
C        0.3191337457   -3.8377279111    0.2635089438
C       -0.7366861037   -1.7478424828    0.9000305982
C       -3.2042047279   -3.4269056313   -1.1021340269
C       -1.9080181754   -3.3338635223   -0.4741787675
C       -3.8966485953   -2.2717911302   -0.7760979608
C       -1.8700649854   -2.1262332442    0.1944481877
C        0.3690399581   -2.6103854717    0.9562437615
C       -0.0444380143   -3.0815836873    4.9806327521
C        0.4110045791   -2.4188457199    3.8819365255
C       -1.1677434850   -4.1601487085    4.9258018603
C       -0.0554821050   -3.4098301014    7.4151984185
C       -1.4121248189   -1.5831106431    6.4120356658
C       -1.3695635248   -4.2253977440    7.3665061227
C       -2.5700061934   -2.5519833399    6.0649907667
C       -0.0566161357   -2.3297802644    6.3091292421
C        1.5446932858   -2.8426310824    2.9861214424
N       -3.0860331116   -1.4548959401    0.0241212353
N       -2.0573834509   -3.9426026451    6.0888649358
O        1.4810996115   -2.2493585010    1.6780010556
F        0.1219169449   -1.0950648744    3.8185934313
H       -5.5379005129   -4.9888889695   -2.9986627737
H       -6.7976271396   -2.9245718489   -2.4120777735
H       -3.2059906056   -5.3177612676   -2.1475776406
H       -0.8681941444   -5.1514782117   -1.0006055626
H       -5.7366538523   -1.1738566445   -0.9802210127
H        1.1803013762   -4.4931033632    0.2914840152
H       -0.7075172480   -0.7965853864    1.4134848669
H       -1.7320100851   -4.0634077802    3.9914584101
H       -0.7316648374   -5.1640059981    4.9575812155
H        0.0575853915   -2.9618162768    8.4072629912
H        0.7977659142   -4.0749361685    7.2503771221
H       -1.4558048294   -0.7144564494    5.7487854874
H       -1.5317462085   -1.2142720882    7.4354256244
H       -1.1578847170   -5.2938402656    7.4765777630
H       -2.0224759606   -3.9268039630    8.1940441493
H       -3.3999021098   -2.4180007348    6.7664339302
H       -2.9474606636   -2.3269235745    5.0608568458
H        0.7983460718   -1.6532286477    6.4136137789
H        1.5408058127   -3.9331172876    2.8959425890
H        2.4889326283   -2.5572628717    3.4586647760
H       -3.3269627815   -0.5497247151    0.4102145136
46   

C       -5.2517928210   -4.2834817249   -1.5871262370
C       -5.8921218222   -3.0769085423   -1.2420417724
C       -3.9034157062   -4.4913666068   -1.2523079683
C       -0.8211232055   -4.3073927985   -0.1631562731
C       -5.1879336613   -2.0676312893   -0.5627695653
C        0.4044388818   -3.9418941046    0.4197643663
C       -0.5115474629   -1.7858406186    1.0554574616
C       -3.2303328011   -3.4736114195   -0.5765307865
C       -1.8711315744   -3.3931835516   -0.1013680461
C       -3.8501790965   -2.2817048288   -0.2376283784
C       -1.7250930858   -2.1562439024    0.4949715681
C        0.5644039125   -2.6880278658    1.0411362007
C        0.0453360488   -3.0035219940    4.7951685011
C        0.6983427582   -2.2921703824    3.8500364341
C       -0.9530312085   -4.1334364092    4.4228087182
C       -0.5944867900   -3.4269063446    7.1333533995
C       -1.7141611505   -1.6184222785    5.8372263668
C       -1.8092392838   -4.2874895168    6.7137879543
C       -2.6879531626   -2.6222405170    5.1676797632
C       -0.3491400678   -2.3077847940    6.0956578750
C        1.8570660085   -2.7497179995    3.0145357284
N       -2.9326754987   -1.4529075055    0.4230986482
N       -2.1349711393   -3.9913533408    5.3029537508
O        1.7540848068   -2.3490022605    1.6366434345
F        0.6219041316   -0.9402551270    3.9475894934
H       -5.8022105706   -5.0551335894   -2.1128252806
H       -6.9336312822   -2.9244320127   -1.5016585876
H       -3.3987002888   -5.4140494319   -1.5105721200
H       -0.9502543729   -5.2699636262   -0.6427712428
H       -5.6723068990   -1.1375325528   -0.2940609761
H        1.2433862987   -4.6257237495    0.3944247716
H       -0.3972395401   -0.8142645930    1.5169925829
H       -1.2503511674   -4.0387262785    3.3719737527
H       -0.4861733295   -5.1145251784    4.5579750441
H       -0.7694188803   -3.0125699760    8.1310292186
H        0.3011104584   -4.0537004760    7.1845680211
H       -1.6119065270   -0.7348818383    5.2002056315
H       -2.1252353864   -1.2845847148    6.7949200357
H       -1.5897390950   -5.3503394048    6.8574272857
H       -2.6746427984   -4.0371496402    7.3372019920
H       -3.6824966657   -2.5446671924    5.6187385776
H       -2.7889547549   -2.3812222975    4.1028851662
H        0.4145893096   -1.6054980706    6.4465755194
H        1.9442149839   -3.8385613790    3.0774977657
H        2.7743500029   -2.3235224428    3.4311813954
H       -3.1026383401   -0.5198221515    0.7793070943
46   

C       -5.3159861988   -4.1699351232   -1.1885191081
C       -5.9029279663   -2.9267936001   -0.8803837350
C       -3.9634772199   -4.4076679804   -0.8931265957
C       -0.8391711887   -4.2794453403    0.0709812286
C       -5.1410788886   -1.9110760073   -0.2769688111
C        0.4174986695   -3.9326276127    0.5953344621
C       -0.4020895864   -1.7192622047    1.1642975012
C       -3.2325227156   -3.3824227203   -0.2932080486
C       -1.8547701700   -3.3269959448    0.1278030704
C       -3.7998022456   -2.1554130142    0.0103574946
C       -1.6460271102   -2.0701903192    0.6607278581
C        0.6402779757   -2.6603128433    1.1564854227
C        0.0723572129   -2.9022612551    4.7863202172
C        0.8234201134   -2.1882043054    3.9294956839
C       -0.7448597660   -4.1296113697    4.3217175223
C       -0.8730381396   -3.3076183686    7.0223109338
C       -1.9195729054   -1.6481573784    5.4785991483
C       -1.9274690620   -4.2901206169    6.4628450549
C       -2.6986573957   -2.7619460141    4.7293600367
C       -0.5648429042   -2.2050986420    5.9841560595
C        1.9716149692   -2.6812360186    3.1053909848
N       -2.8314585716   -1.3291286855    0.5979535238
N       -2.0555571608   -4.0695865781    5.0072430785
O        1.8557121529   -2.3448175848    1.7108049271
F        0.8146338154   -0.8392463506    4.0839554436
H       -5.9106848454   -4.9468193158   -1.6549725582
H       -6.9479081551   -2.7512838304   -1.1097031511
H       -3.4992774625   -5.3586656148   -1.1232671823
H       -1.0181476154   -5.2574216569   -0.3588977728
H       -5.5845079379   -0.9531036808   -0.0371186048
H        1.2307835159   -4.6469724325    0.5750322192
H       -0.2386649852   -0.7349505016    1.5823883989
H       -0.8884337856   -4.0978316159    3.2360740540
H       -0.2186935112   -5.0566735843    4.5715157132
H       -1.2360101691   -2.8791749665    7.9615934052
H        0.0543160634   -3.8472321057    7.2381237450
H       -1.7776414351   -0.7939679422    4.8093920675
H       -2.5009653117   -1.3020182797    6.3386804421
H       -1.6395632643   -5.3227090950    6.6852246337
H       -2.8972687666   -4.1035374941    6.9369642701
H       -3.7499060749   -2.7606704055    5.0350778991
H       -2.6692962312   -2.5697470978    3.6501859709
H        0.0745189597   -1.4279067569    6.4162600900
H        2.0638148686   -3.7656729642    3.2172693100
H        2.8922537062   -2.2344569456    3.4921270122
H       -2.9558583881   -0.3733974892    0.9103750587
46   

C       -5.3343412915   -4.0744486409   -0.9887345604
C       -5.8840336647   -2.8139135796   -0.6826383850
C       -3.9796533295   -4.3389656017   -0.7281617507
C       -0.8281744582   -4.2705890684    0.1493495406
C       -5.0826771916   -1.8077368348   -0.1154541232
C        0.4474747878   -3.9494048613    0.6435676524
C       -0.3062339406   -1.7111133024    1.2065819929
C       -3.2089084615   -3.3224189972   -0.1643038711
C       -1.8194254482   -3.2936589515    0.2191189425
C       -3.7397131784   -2.0789103284    0.1380505801
C       -1.5683007470   -2.0361954756    0.7316905368
C        0.7116668755   -2.6787807915    1.1907327043
C        0.0908095355   -2.8309921465    4.7378695807
C        0.9350982890   -2.1521042421    3.9520650036
C       -0.5806171267   -4.1446485638    4.2934376684
C       -1.0104804711   -3.1490575466    6.9135396566
C       -2.0362442232   -1.7017920601    5.1511997643
C       -1.9136928857   -4.2679315004    6.3469817107
C       -2.6724183693   -2.9349749130    4.4552249433
C       -0.6991265150   -2.1033122223    5.8198435759
C        2.0568476512   -2.7030735235    3.1317737339
N       -2.7373448403   -1.2680683550    0.6889856587
N       -1.9421311115   -4.1566376471    4.8736935053
O        1.9414819381   -2.3934069167    1.7300677883
F        0.9938755287   -0.8067846726    4.1242692596
H       -5.9595306457   -4.8441078336   -1.4264650403
H       -6.9308793333   -2.6177244665   -0.8852334005
H       -3.5439975023   -5.3038110000   -0.9565807719
H       -1.0403879738   -5.2487175222   -0.2648241375
H       -5.4975767168   -0.8366800202    0.1228673745
H        1.2419131401   -4.6844131407    0.6156657162
H       -0.1110375995   -0.7277639225    1.6132117392
H       -0.6408744995   -4.1891959672    3.2013987140
H       -0.0032737811   -5.0067913950    4.6428255920
H       -1.4997079216   -2.6864736866    7.7762160701
H       -0.0653314305   -3.5801532440    7.2580726002
H       -1.8841121993   -0.9088098637    4.4122105220
H       -2.7152490703   -1.3176727795    5.9185879994
H       -1.5442595701   -5.2488202502    6.6634239610
H       -2.9324014727   -4.1538398619    6.7331838336
H       -3.7359905669   -3.0037172163    4.7057228597
H       -2.5979001162   -2.8242687566    3.3672232845
H       -0.1673484979   -1.2445898105    6.2428393331
H        2.1138789805   -3.7872796576    3.2663231972
H        2.9957717378   -2.2805917971    3.5015148476
H       -2.8309046493   -0.3053084039    0.9906172818
46   

C       -5.3437855641   -4.0082401307   -0.9207208146
C       -5.8819494800   -2.7465409337   -0.5994220202
C       -3.9888778421   -4.2844557393   -0.6736874557
C       -0.8311838113   -4.2475265781    0.1829458508
C       -5.0688890199   -1.7510677785   -0.0299663586
C        0.4482753157   -3.9429947452    0.6779944417
C       -0.2853295946   -1.7055294550    1.2703849193
C       -3.2062482784   -3.2781955254   -0.1075845628
C       -1.8140781200   -3.2633703664    0.2670474671
C       -3.7258965250   -2.0339256611    0.2104981502
C       -1.5506557422   -2.0135406033    0.7922657596
C        0.7237021521   -2.6821985095    1.2425574008
C        0.0198144401   -2.7816915830    4.7021298551
C        0.9684981790   -2.1428781310    4.0141347351
C       -0.5457466590   -4.1485617378    4.2871496063
C       -1.1911656310   -3.0195176483    6.8243646510
C       -2.1895787832   -1.7659886912    4.9025917117
C       -1.9615118430   -4.2464915027    6.2860255975
C       -2.7249219847   -3.0860328441    4.2869718941
C       -0.8783402137   -2.0320533625    5.6788868074
C        2.0605530756   -2.7410842757    3.1884881942
N       -2.7139709807   -1.2359663498    0.7628695583
N       -1.9285807669   -4.2231437002    4.8086325973
O        1.9547643673   -2.4165060141    1.7891731115
F        1.1086284190   -0.8111621851    4.2343557177
H       -5.9781243956   -4.7697819476   -1.3595649660
H       -6.9290181697   -2.5412978392   -0.7917861791
H       -3.5622798962   -5.2506296393   -0.9134168114
H       -1.0529699355   -5.2193472478   -0.2410272695
H       -5.4751518128   -0.7793639860    0.2203380861
H        1.2359103159   -4.6848775549    0.6404103802
H       -0.0813265644   -0.7297733912    1.6908353659
H       -0.5533751892   -4.2434664621    3.1973472774
H        0.0663135270   -4.9565215560    4.7009924227
H       -1.7778037152   -2.5359412095    7.6114787988
H       -0.2457127088   -3.3472831312    7.2677448363
H       -2.0251094942   -1.0362885273    4.1034713487
H       -2.9335402596   -1.3495292495    5.5884887881
H       -1.5197083801   -5.1696130839    6.6753061169
H       -3.0031724817   -4.2073120317    6.6224737275
H       -3.7867360987   -3.2089848920    4.5239093113
H       -2.6352370674   -3.0489942204    3.1957045813
H       -0.4334431512   -1.1115289281    6.0702209514
H        2.0699587976   -3.8275493897    3.3155411305
H        3.0191694469   -2.3648283706    3.5576618415
H       -2.7982302675   -0.2751500851    1.0734277303
46   

C       -5.3047534550   -3.9152945967   -0.9111357423
C       -5.8512198922   -2.6652831576   -0.5596951189
C       -3.9496938702   -4.1909372659   -0.6641283281
C       -0.7961780822   -4.1594152963    0.2076126625
C       -5.0465168151   -1.6812362272    0.0406926227
C        0.4796005764   -3.8612391574    0.7157777182
C       -0.2701908940   -1.6469754579    1.3718851458
C       -3.1753223511   -3.1959689400   -0.0672926344
C       -1.7850584670   -3.1836538426    0.3148656041
C       -3.7034016502   -1.9635849518    0.2814161704
C       -1.5313066469   -1.9476497286    0.8768588050
C        0.7450490745   -2.6154977326    1.3178905591
C       -0.0028377117   -2.7530021831    4.6956960894
C        1.0371959478   -2.1471676133    4.1228195099
C       -0.5016654952   -4.1467393051    4.2982092098
C       -1.2639938638   -2.9510567153    6.7879416588
C       -2.2597584033   -1.8279215794    4.7868123959
C       -1.9388602046   -4.2462788084    6.2810272450
C       -2.7335939380   -3.1972000663    4.2335055546
C       -0.9622328453   -2.0000843041    5.6095687428
C        2.0892857727   -2.7516442303    3.2521537754
N       -2.6988788882   -1.1757950191    0.8613112338
N       -1.8865000443   -4.2718908115    4.8038517623
O        1.9730685247   -2.3554161624    1.8730321538
F        1.2607669292   -0.8483265715    4.4442002950
H       -5.9328038295   -4.6681557000   -1.3734500964
H       -6.8982410374   -2.4602700226   -0.7527160379
H       -3.5169247175   -5.1482910141   -0.9271165675
H       -1.0104791743   -5.1201228519   -0.2446700134
H       -5.4593405125   -0.7185835763    0.3141913644
H        1.2719589475   -4.5968420476    0.6589290718
H       -0.0731694196   -0.6837673101    1.8235050192
H       -0.4907396000   -4.2614118183    3.2105966395
H        0.1385374531   -4.9198216315    4.7354530319
H       -1.9105535538   -2.4660053536    7.5256653459
H       -0.3215598793   -3.2011835172    7.2851122338
H       -2.0950078865   -1.1393675420    3.9523226464
H       -3.0378448922   -1.3989084472    5.4254318641
H       -1.4375943145   -5.1223835992    6.7054610864
H       -2.9846594530   -4.2709611160    6.6056373506
H       -3.7875578911   -3.3586584787    4.4821496013
H       -2.6501940998   -3.2051939852    3.1413875581
H       -0.5756824081   -1.0419179634    5.9705564899
H        2.0567577760   -3.8423502437    3.3279866269
H        3.0689687445   -2.4333747425    3.6206161323
H       -2.7898032142   -0.2233947006    1.1950629891
46   

C       -5.2926217450   -3.9059630290   -0.8973001422
C       -5.8467785806   -2.6598737598   -0.5440653833
C       -3.9376708626   -4.1763602515   -0.6437520302
C       -0.7880323011   -4.1320404081    0.2415357785
C       -5.0499974940   -1.6746734676    0.0649443514
C        0.4851318630   -3.8282283463    0.7528809601
C       -0.2795556990   -1.6227830511    1.4211531269
C       -3.1711619791   -3.1802493703   -0.0385085069
C       -1.7826794654   -3.1624554984    0.3503786557
C       -3.7069664927   -1.9519089813    0.3123635197
C       -1.5376575825   -1.9277910275    0.9195502536
C        0.7420781232   -2.5833206292    1.3611434744
C        0.0000738731   -2.7347263992    4.6686878108
C        1.1155808095   -2.1791700369    4.1964196801
C       -0.4690687953   -4.1504685371    4.3220834429
C       -1.2594301127   -2.8623747286    6.7626210055
C       -2.2832046991   -1.8590818117    4.7155143310
C       -1.8939995091   -4.1998956921    6.3153381383
C       -2.7251379877   -3.2626950920    4.2276710408
C       -0.9808125056   -1.9600680643    5.5410172843
C        2.1185481442   -2.7777118385    3.2653378499
N       -2.7092680264   -1.1618200460    0.9008553253
N       -1.8479975445   -4.2888012089    4.8399763538
O        1.9691721708   -2.3124938853    1.9122178284
F        1.4231924655   -0.9278082383    4.6193389414
H       -5.9146471050   -4.6597152313   -1.3663106981
H       -6.8935661239   -2.4587541187   -0.7425078497
H       -3.4991397453   -5.1306082856   -0.9084855858
H       -0.9955845445   -5.0916476861   -0.2162463181
H       -5.4688267709   -0.7149527222    0.3396467844
H        1.2823354757   -4.5581871838    0.6915769789
H       -0.0883524008   -0.6617205695    1.8797097149
H       -0.4616941312   -4.3009429095    3.2388117628
H        0.1907482988   -4.8939875562    4.7809520734
H       -1.9234105729   -2.3617621496    7.4739898449
H       -0.3126979292   -3.0609019473    7.2747912632
H       -2.1368793328   -1.2053829953    3.8506885379
H       -3.0704832736   -1.4197832287    5.3356299565
H       -1.3617925431   -5.0399859278    6.7736241149
H       -2.9365752133   -4.2450017788    6.6479475491
H       -3.7730538232   -3.4391482409    4.4912490102
H       -2.6483679532   -3.3172906392    3.1364009460
H       -0.6218255694   -0.9748790329    5.8540958578
H        2.0519593956   -3.8691241045    3.2933487363
H        3.1201504879   -2.5089951259    3.6138518316
H       -2.8065269386   -0.2106579571    1.2363378047
46   

C       -5.2814960081   -3.9125712143   -0.9099135755
C       -5.8490896307   -2.6704593363   -0.5641384048
C       -3.9276339804   -4.1727206425   -0.6400929303
C       -0.7884906593   -4.1035131964    0.2811202736
C       -5.0668841912   -1.6789762805    0.0534819293
C        0.4771415134   -3.7887632752    0.8045134799
C       -0.3120517590   -1.5897328792    1.4647570258
C       -3.1756982435   -3.1705495429   -0.0264775776
C       -1.7918483165   -3.1418199577    0.3784818061
C       -3.7247736093   -1.9460154615    0.3168721853
C       -1.5625717647   -1.9048842827    0.9493851029
C        0.7181406446   -2.5407840685    1.4140680261
C       -0.0201056039   -2.7347197210    4.6488055514
C        1.1621831207   -2.2359145174    4.2843712894
C       -0.4793174351   -4.1647185064    4.3503376634
C       -1.2724896416   -2.7922902190    6.7457714170
C       -2.3193633943   -1.8812102874    4.6710694769
C       -1.8927561648   -4.1538521543    6.3522593559
C       -2.7444146369   -3.3058250952    4.2337682034
C       -1.0097631758   -1.9352710807    5.4883735909
C        2.1244424563   -2.7991456767    3.2889300793
N       -2.7398733965   -1.1478932900    0.9159006911
N       -1.8538940999   -4.2984761050    4.8806638303
O        1.9382995813   -2.2532130729    1.9716986762
F        1.5424029773   -1.0524668691    4.8264887657
H       -5.8923386478   -4.6711154334   -1.3858724431
H       -6.8949300889   -2.4772421652   -0.7751353852
H       -3.4790043041   -5.1238125344   -0.8991771282
H       -0.9836001896   -5.0648688905   -0.1784822793
H       -5.4961334891   -0.7222201796    0.3224226339
H        1.2809146601   -4.5119081049    0.7492425416
H       -0.1326455915   -0.6275225001    1.9255005642
H       -0.4774699685   -4.3476746613    3.2719476755
H        0.1903505403   -4.8881178670    4.8268134504
H       -1.9398572012   -2.2725423866    7.4400218112
H       -0.3215966661   -2.9595202477    7.2615160479
H       -2.1911888649   -1.2531559116    3.7852911205
H       -3.1077045877   -1.4335142726    5.2838283136
H       -1.3475328731   -4.9694266210    6.8386947743
H       -2.9327896242   -4.1993192580    6.6926436371
H       -3.7899575191   -3.4855060096    4.5044831390
H       -2.6673325300   -3.3974264952    3.1449120386
H       -0.6617744120   -0.9332886549    5.7575917939
H        2.0367196159   -3.8890683344    3.2595522550
H        3.1420543439   -2.5683902825    3.6177710745
H       -2.8484625705   -0.1970679228    1.2488378640
46   

C       -5.2834243901   -3.9247857278   -0.9308351106
C       -5.8542566258   -2.6761014881   -0.6154125793
C       -3.9351871778   -4.1833367935   -0.6325520627
C       -0.8129604139   -4.1056940608    0.3454153106
C       -5.0808083236   -1.6762552480   -0.0003107492
C        0.4438965697   -3.7847450788    0.8861217195
C       -0.3514362097   -1.5733566472    1.4946418065
C       -3.1919096995   -3.1728638308   -0.0219240085
C       -1.8154658277   -3.1403441594    0.4077437954
C       -3.7441291487   -1.9416462011    0.2910308839
C       -1.5933397701   -1.8944795125    0.9615866750
C        0.6773025516   -2.5265214341    1.4788229812
C       -0.0617450285   -2.7871077836    4.6355553191
C        1.1737570683   -2.3454640732    4.3797326362
C       -0.5236630762   -4.2301454427    4.4004114869
C       -1.3183867302   -2.7538571431    6.7280833945
C       -2.3708466987   -1.9350925234    4.6220354956
C       -1.9452529422   -4.1285464554    6.3934818882
C       -2.7854236394   -3.3760218889    4.2332288375
C       -1.0573427788   -1.9526146235    5.4336074855
C        2.1123585937   -2.8465635925    3.3271155816
N       -2.7681104756   -1.1356254134    0.8938655795
N       -1.9006495451   -4.3398669315    4.9298030168
O        1.8881005856   -2.2250909684    2.0501062755
F        1.6019642713   -1.2416354164    5.0409804790
H       -5.8874912095   -4.6896142804   -1.4053941423
H       -6.8957682746   -2.4842216272   -0.8480154329
H       -3.4843227394   -5.1394457009   -0.8681863991
H       -1.0020761383   -5.0741038543   -0.1017074127
H       -5.5126071430   -0.7143995847    0.2454111938
H        1.2464693125   -4.5105433526    0.8548904922
H       -0.1778347189   -0.6041456316    1.9425667350
H       -0.5174087190   -4.4593672427    3.3307508088
H        0.1441864931   -4.9328378352    4.9093952271
H       -1.9811591637   -2.2032933347    7.4026777022
H       -0.3659660217   -2.9025159228    7.2468295895
H       -2.2563642226   -1.3326588311    3.7175329044
H       -3.1586156944   -1.4758255920    5.2269824085
H       -1.4077810984   -4.9244291281    6.9195609776
H       -2.9873314480   -4.1520171210    6.7298011032
H       -3.8346727102   -3.5485598532    4.4940477611
H       -2.6904957041   -3.5079140695    3.1498310734
H       -0.7097721188   -0.9388693913    5.6558776629
H        2.0252182023   -3.9334973546    3.2402612445
H        3.1380610324   -2.6307689684    3.6406793657
H       -2.8810253807   -0.1796477851    1.2102049572
46   

C       -5.3867309516   -3.6722065699   -0.7832589518
C       -5.8387100662   -2.3404055787   -0.7020815631
C       -4.0704809035   -3.9975660116   -0.4153888605
C       -0.9619176257   -4.0381267602    0.6065197417
C       -4.9775058914   -1.3238628013   -0.2534150627
C        0.3159441175   -3.7451596094    1.1119451206
C       -0.2679146624   -1.3969712226    1.3069868437
C       -3.2382100854   -2.9684996768    0.0262466440
C       -1.8672584357   -2.9880372124    0.4739161974
C       -3.6731986652   -1.6558669266    0.1083429010
C       -1.5304335255   -1.6899089672    0.8061946081
C        0.6661293594   -2.4286483863    1.4810063046
C       -0.0489452900   -2.8886531986    4.5496678335
C        1.1376024892   -2.3018783937    4.3357611866
C       -0.2429841769   -4.4105191697    4.6244662034
C       -1.4013440916   -2.6475007124    6.5672408781
C       -2.4742760495   -2.4932068919    4.3264677125
C       -1.7597162912   -4.1529908798    6.5285892672
C       -2.6086423519   -4.0325802200    4.2479438718
C       -1.2174421981   -2.1030337632    5.1331923239
C        2.1538400114   -2.7060121916    3.3109571513
N       -2.6285924027   -0.8502139363    0.5838451790
N       -1.6060007201   -4.6551152539    5.1446885902
O        1.8979015788   -2.1368799009    2.0148337995
F        1.3762284439   -1.1111940792    4.9394829612
H       -6.0579121656   -4.4491171119   -1.1311474698
H       -6.8561378943   -2.0969002961   -0.9871591168
H       -3.7107163048   -5.0175064194   -0.4721055708
H       -1.2397407276   -5.0485267765    0.3320677495
H       -5.3178188644   -0.2982277408   -0.1877475228
H        1.0437238556   -4.5383670301    1.2230364122
H       -0.0068060816   -0.3847130746    1.5845758819
H       -0.1384758286   -4.8515127081    3.6283530819
H        0.5093646653   -4.8592619766    5.2815554467
H       -2.1850783220   -2.0975796164    7.0971823565
H       -0.4666216776   -2.5073488543    7.1194878217
H       -2.4308618191   -2.0812616692    3.3162444315
H       -3.3576700538   -2.0700144467    4.8142788683
H       -1.1174190623   -4.7092289088    7.2193712409
H       -2.7966912825   -4.2948879469    6.8512854794
H       -3.6237691749   -4.3350553992    4.5252306280
H       -2.4353683257   -4.3634124861    3.2181085136
H       -1.0606031903   -1.0195697656    5.1317999152
H        2.1952726854   -3.7966628292    3.2416541641
H        3.1390490445   -2.3685105652    3.6461249659
H       -2.6560313598    0.1506470075    0.7396444353
46   

C       -5.3480110420   -3.5521446616   -0.8210530572
C       -5.7935656942   -2.2168013927   -0.7673225524
C       -4.0364493078   -3.8776817003   -0.4366916446
C       -0.9382245307   -3.9162532168    0.6187368252
C       -4.9306975446   -1.1969476750   -0.3295242177
C        0.3362032237   -3.6213017061    1.1323018969
C       -0.2354857091   -1.2663446969    1.2753286955
C       -3.2021498097   -2.8451750270   -0.0067435701
C       -1.8352311844   -2.8636483953    0.4538950872
C       -3.6311049110   -1.5291599008    0.0488661367
C       -1.4947932958   -1.5614385001    0.7670750109
C        0.6921401234   -2.2987308864    1.4786910138
C        0.0430136233   -2.9649977179    4.4651010520
C        1.2445504150   -2.3685617973    4.3412238226
C       -0.1409639314   -4.4843335509    4.6421720108
C       -1.3010099019   -2.5439076192    6.4690910162
C       -2.3986241401   -2.6765240113    4.2403290743
C       -1.5176475671   -4.0699939450    6.6151671692
C       -2.5458769481   -4.2054349752    4.4107741560
C       -1.1455165366   -2.1633301326    4.9801751300
C        2.2463602015   -2.6425647212    3.2573948767
N       -2.5867721514   -0.7205819609    0.5201422614
N       -1.4568990852   -4.7058322217    5.2794971348
O        1.9218253889   -1.9948587961    2.0139263673
F        1.4757428028   -1.2466131934    5.0673207084
H       -6.0206645083   -4.3315871807   -1.1603492524
H       -6.8073698614   -1.9731182535   -1.0649367310
H       -3.6819379449   -4.9003959724   -0.4719354270
H       -1.2198722226   -4.9302216454    0.3620552489
H       -5.2662788734   -0.1686418337   -0.2844485150
H        1.0553570989   -4.4187985251    1.2643918352
H        0.0282968586   -0.2502252386    1.5354701402
H       -0.1069542158   -4.9804746638    3.6669401885
H        0.6619647185   -4.8932023433    5.2645327266
H       -2.1481151269   -2.0088966083    6.9092863097
H       -0.4014549481   -2.2489196874    7.0183868922
H       -2.3294155386   -2.4377885016    3.1778533089
H       -3.2898090353   -2.1749884116    4.6296033393
H       -0.7499829347   -4.4930951427    7.2717240304
H       -2.4919110073   -4.2646566151    7.0758717743
H       -3.5212286270   -4.4396534421    4.8500030873
H       -2.4977047663   -4.6919227597    3.4305547441
H       -1.0211136530   -1.0834350480    4.8469612544
H        2.3407611061   -3.7219797505    3.1095666214
H        3.2236407244   -2.2782098541    3.5876548156
H       -2.6118320444    0.2824761521    0.6612146271
46   

C       -5.2809536064   -3.5833798904   -0.8949346499
C       -5.7601912915   -2.2662377295   -0.7536098061
C       -3.9577008648   -3.8977628630   -0.5425293017
C       -0.8516311080   -3.9225130013    0.4924395576
C       -4.9197590536   -1.2536540786   -0.2589719058
C        0.4164093968   -3.6292117125    1.0233897888
C       -0.2132316695   -1.3026768722    1.3135949486
C       -3.1459209947   -2.8726436119   -0.0553636920
C       -1.7752944859   -2.8844597362    0.3949391573
C       -3.6084371472   -1.5746949739    0.0874453770
C       -1.4669588971   -1.5968583229    0.7908122206
C        0.7412270999   -2.3217438777    1.4515108662
C        0.1448060369   -3.2150920757    4.3356657125
C        1.3819845824   -2.6619353565    4.3040454024
C       -0.1195148636   -4.7207473233    4.5593526722
C       -1.1520276270   -2.5865161342    6.3411557779
C       -2.2930766645   -2.9274249923    4.1598892516
C       -1.2047181471   -4.1055498692    6.6414989995
C       -2.5398140177   -4.3794213798    4.6252095489
C       -1.0178605418   -2.3548022159    4.8175763196
C        2.3548340569   -2.7773256081    3.1627306519
N       -2.5817454818   -0.7706640397    0.6032415908
N       -1.3517745988   -4.8509137723    5.3691124936
O        1.9634445582   -2.0161683851    2.0048476536
F        1.6616546307   -1.6790285095    5.1952269167
H       -5.9367962113   -4.3574942214   -1.2767110181
H       -6.7828373861   -2.0311571267   -1.0269443037
H       -3.5777507366   -4.9068145962   -0.6440024073
H       -1.1095159132   -4.9253512496    0.1744118064
H       -5.2815868526   -0.2395982717   -0.1457310219
H        1.1530199002   -4.4173060774    1.1051110065
H        0.0253925813   -0.2985010956    1.6366091618
H       -0.2408521114   -5.2268095855    3.5959231130
H        0.7280563482   -5.1766563533    5.0818033720
H       -2.0714201449   -2.1078886040    6.6925141309
H       -0.3175378135   -2.1366829333    6.8872257802
H       -2.1636724912   -2.9164799283    3.0769412230
H       -3.1678451637   -2.3124485321    4.3917349689
H       -0.2774260943   -4.4143845743    7.1362224957
H       -2.0323213777   -4.3254727929    7.3239507387
H       -3.4157245436   -4.4148479501    5.2817505473
H       -2.7435787627   -5.0202359061    3.7609122771
H       -0.8859457695   -1.2967651872    4.5667830322
H        2.4865791423   -3.8307613673    2.9007822268
H        3.3285319037   -2.4080619408    3.4981755654
H       -2.6321110896    0.2202155700    0.8086428399
46   

C       -5.2848374150   -3.5752455149   -1.0055273774
C       -5.7770847096   -2.2591526259   -0.9048393392
C       -3.9708252557   -3.8730441153   -0.6068840643
C       -0.8936897217   -3.8517627047    0.5149123317
C       -4.9595937217   -1.2313570242   -0.4033141436
C        0.3562159912   -3.5383520175    1.0774586835
C       -0.3046804193   -1.2150012088    1.3152935530
C       -3.1813677539   -2.8327735848   -0.1150521188
C       -1.8245387814   -2.8249932886    0.3757340314
C       -3.6578291105   -1.5362938017   -0.0096652919
C       -1.5397740000   -1.5293024599    0.7610549808
C        0.6571714387   -2.2202663914    1.4975969226
C        0.1957865204   -3.3377357618    4.3235469507
C        1.4546742719   -2.8055595559    4.3260844920
C       -0.1172228022   -4.8279850318    4.6154089422
C       -1.1106525449   -2.5816372326    6.2896776632
C       -2.2335262604   -2.9990057810    4.1178251929
C       -1.1807270272   -4.0835016905    6.6628865379
C       -2.5280806839   -4.4143013482    4.6627808922
C       -0.9483791145   -2.4279489036    4.7574230072
C        2.3655314123   -2.7264701691    3.1266233705
N       -2.6542459674   -0.7154395026    0.5245615854
N       -1.3532638319   -4.8845915195    5.4281068382
O        1.8585501931   -1.8779945805    2.0792583741
F        1.8193837156   -2.0416830080    5.3839455321
H       -5.9235398517   -4.3613432840   -1.3918413272
H       -6.7921457604   -2.0366835248   -1.2145879577
H       -3.5812810618   -4.8811045483   -0.6768126586
H       -1.1331048680   -4.8618128346    0.2053607882
H       -5.3315987094   -0.2180183824   -0.3207554857
H        1.0918950433   -4.3231906926    1.1880247015
H       -0.0856484038   -0.2028745444    1.6271156410
H       -0.2527476654   -5.3733384365    3.6756293749
H        0.7158967640   -5.2853322426    5.1594819798
H       -2.0337345992   -2.0807778926    6.5976745591
H       -0.2878874379   -2.1095257181    6.8340840641
H       -2.0914221462   -3.0536387692    3.0381370216
H       -3.0923358627   -2.3468321412    4.3032775551
H       -0.2504933179   -4.3821320718    7.1586361137
H       -2.0010046852   -4.2591283853    7.3666333818
H       -3.4002773095   -4.3828640239    5.3245477237
H       -2.7596158086   -5.0941749784    3.8362760827
H       -0.7854043186   -1.3868092590    4.4588899806
H        2.5606423430   -3.7333451099    2.7483741506
H        3.3283589616   -2.3203581281    3.4507439875
H       -2.7184458610    0.2785446505    0.7100794066
46   

C       -5.2704618579   -3.5851292827   -1.1307160617
C       -5.7802957926   -2.2734603632   -1.0663319095
C       -3.9669674704   -3.8615987180   -0.6850757498
C       -0.9263557788   -3.7857760158    0.5283930340
C       -4.9916966454   -1.2291154288   -0.5528415785
C        0.2993763193   -3.4515047278    1.1306389103
C       -0.4000943782   -1.1359452534    1.3258620307
C       -3.2058792583   -2.8049684141   -0.1834842556
C       -1.8661869435   -2.7739574696    0.3510164497
C       -3.7007078134   -1.5132121550   -0.1111868719
C       -1.6109332333   -1.4715626435    0.7321591058
C        0.5695014709   -2.1248296203    1.5538287136
C        0.2685136122   -3.4621642773    4.3326845992
C        1.5561510103   -2.9689588247    4.3254367370
C       -0.1162075126   -4.9284862906    4.6861904247
C       -0.9843070360   -2.5481340501    6.2446298469
C       -2.1485821793   -3.0240535421    4.1050632747
C       -1.1277576887   -4.0246542526    6.6963659440
C       -2.5046870216   -4.3938776529    4.7239509229
C       -0.8333548017   -2.4804737965    4.7054321547
C        2.3735513067   -2.6746544537    3.0857929940
N       -2.7257413984   -0.6739425743    0.4469512026
N       -1.3480136212   -4.8803610799    5.5060821733
O        1.7365449018   -1.7471060758    2.1873014650
F        2.1298596177   -2.6912743512    5.5197571897
H       -5.8874665549   -4.3843603571   -1.5252573830
H       -6.7868399588   -2.0673452505   -1.4129428135
H       -3.5643380410   -4.8661027214   -0.7263287902
H       -1.1423713317   -4.8017952340    0.2210854432
H       -5.3776076447   -0.2191508216   -0.4974317408
H        1.0308277331   -4.2347216336    1.2711920911
H       -0.2069987132   -0.1177779307    1.6351519709
H       -0.2847094303   -5.5058671572    3.7712578023
H        0.6958136913   -5.4024095989    5.2477824788
H       -1.8752090027   -1.9842166695    6.5378987950
H       -0.1278576345   -2.0938586429    6.7516873515
H       -2.0194882297   -3.1406785261    3.0288603323
H       -2.9741555954   -2.3233547976    4.2624468473
H       -0.2110245942   -4.3440898640    7.2043447683
H       -1.9517303966   -4.1223997881    7.4108675045
H       -3.3692785989   -4.2874482698    5.3878886662
H       -2.7747112880   -5.1033851355    3.9349104598
H       -0.6220547898   -1.4650148079    4.3540133280
H        2.6129009519   -3.6096228425    2.5734947456
H        3.3281248404   -2.2407007231    3.3979276544
H       -2.8078322723    0.3214948706    0.6168691778
