23   

C       -4.8394601089   -6.8729070803   -2.0221284052
C        1.2347100645   -4.8207365067    3.1736935646
C       -3.3355728355   -4.8946904544   -1.4716640763
C        1.0757265740   -5.3672091128    1.9398704060
C       -3.7725523874   -6.5056215041    0.1796505566
C       -4.0130480390   -6.1339506548   -1.1173617184
C       -2.5758945630   -4.3762083332   -0.4440670977
C        0.6971209153   -3.5088215458    3.4436245128
C       -0.1413604803   -3.3644611171    1.3093939746
C       -1.8558197225   -3.1092718631   -0.4969829350
C       -0.8855133087   -2.6259284124    0.3053439557
N       -5.5075033186   -7.4769051954   -2.7604419900
N        0.0167429630   -2.8104620184    2.4726302239
N        0.3830435133   -4.6182217463    0.9895587904
O        0.8350719980   -3.0208987940    4.5519776711
S       -2.7150896013   -5.3748436867    1.0131887908
H        1.7543463683   -5.3328154684    3.9710966659
H       -3.4334601138   -4.4289965507   -2.4468830909
H        1.4780527863   -6.3534877529    1.7199029297
H       -4.1867344432   -7.3928051516    0.6451368509
H       -2.1559847469   -2.4459982632   -1.3020406566
H       -0.6957864685   -1.5600824673    0.2880650759
H        0.2106832865   -4.9592857536    0.0510009936
23   

C       -4.5232502241   -7.0160961109   -1.9709497664
C        1.3106819159   -4.8953976038    3.0976467394
C       -3.1738407547   -4.9317808196   -1.4118557403
C        0.9598311821   -5.4544655522    1.9101344713
C       -3.8241719704   -6.3829763036    0.3167848410
C       -3.8679168200   -6.1551279317   -1.0345415349
C       -2.6029852662   -4.2822133003   -0.3396613593
C        0.9389686626   -3.5288675543    3.3759253472
C       -0.1127616489   -3.3523558494    1.3402667179
C       -1.8925396744   -3.0039293597   -0.3854846690
C       -0.8861604128   -2.5637883956    0.3957690864
N       -5.0509870917   -7.7195752171   -2.7342842405
N        0.2283230539   -2.7886342308    2.4588758320
N        0.2424538756   -4.6628341420    1.0146917907
O        1.2457935025   -3.0300287738    4.4448610539
S       -2.9386796253   -5.1312046888    1.1783009120
H        1.8635895350   -5.4375059080    3.8516125307
H       -3.1236313460   -4.5723842540   -2.4346219103
H        1.2343918567   -6.4822828297    1.6838111138
H       -4.2840654052   -7.2346853874    0.8052391692
H       -2.2063291952   -2.3249117437   -1.1720694647
H       -0.6711305476   -1.5024918864    0.3998552739
H       -0.0755683202   -5.0106363455    0.1172590925
23   

C       -4.2291393613   -7.1186685101   -2.0247244856
C        1.2507894596   -5.1087407834    3.0574334140
C       -3.0406647212   -4.9613266818   -1.3832767003
C        0.7230622886   -5.6367093970    1.9224795599
C       -3.9511533648   -6.3217287800    0.3016892046
C       -3.7646090846   -6.1800823045   -1.0496150543
C       -2.6858893365   -4.2274822960   -0.2751960064
C        1.0477963811   -3.7101539336    3.3499501810
C       -0.1839615822   -3.4383994827    1.4278634751
C       -1.9832621180   -2.9375394695   -0.2452337877
C       -0.9595047789   -2.5737040771    0.5508525503
N       -4.6005956793   -7.8855378594   -2.8183432996
N        0.3244710399   -2.9069086124    2.4979275606
N       -0.0005762390   -4.7816374715    1.0932387104
O        1.5132720835   -3.2379589252    4.3727170207
S       -3.2548784371   -4.9909237376    1.2172852118
H        1.8231975858   -5.6993087274    3.7585602787
H       -2.8142395882   -4.6664150256   -2.4030201521
H        0.8677906828   -6.6883807013    1.6856866069
H       -4.4714470701   -7.1555225968    0.7597345305
H       -2.2993128009   -2.2077848508   -0.9840909784
H       -0.7110568574   -1.5212002722    0.6094700066
H       -0.4473393899   -5.1009942984    0.2407696745
23   

C       -3.9344790057   -7.2299991206   -2.0035041720
C        1.2296305640   -5.2088098118    2.9804527946
C       -2.8995899590   -5.0004519707   -1.3428390895
C        0.5500976437   -5.7241677990    1.9233153251
C       -4.0444487080   -6.2645464183    0.2727594372
C       -3.6475656881   -6.2124667659   -1.0392077841
C       -2.7462589441   -4.1799471092   -0.2514413885
C        1.1646041196   -3.7910173416    3.2415439196
C       -0.2256915226   -3.4730939374    1.4371142702
C       -2.0581094473   -2.8783394278   -0.1748922471
C       -1.0065030573   -2.5665569438    0.6048532534
N       -4.1607198666   -8.0612870383   -2.7867705132
N        0.4258428306   -2.9558719886    2.4344402717
N       -0.1857537065   -4.8370648146    1.1400766736
O        1.7652455609   -3.3291502403    4.1963616315
S       -3.5257723674   -4.8535270963    1.1864922769
H        1.8237190845   -5.8235310263    3.6416100775
H       -2.5106780073   -4.7733365357   -2.3306463462
H        0.5886859981   -6.7901342075    1.7105345478
H       -4.6171264814   -7.0786969373    0.7030327519
H       -2.4054347719   -2.1092097995   -0.8576987640
H       -0.7236463507   -1.5235821352    0.6780848603
H       -0.7384797721   -5.1426428750    0.3462809636
23   

C       -3.6713904022   -7.2722863669   -1.9718572550
C        1.2151570073   -5.2215333061    2.9359392381
C       -2.7765390183   -4.9948424775   -1.2708717584
C        0.3888266089   -5.7329086318    1.9870791372
C       -4.1778959538   -6.1833861768    0.1923768378
C       -3.5603307652   -6.1986237571   -1.0324533686
C       -2.8224693223   -4.1126633279   -0.2195892088
C        1.2739942189   -3.7927261754    3.1281935772
C       -0.2797247593   -3.4547872520    1.4649259241
C       -2.1545817800   -2.8016113928   -0.0838936948
C       -1.0762537401   -2.5252193828    0.6711194538
N       -3.7548747255   -8.1495259796   -2.7328207101
N        0.5098178122   -2.9433090964    2.3607056656
N       -0.3690072259   -4.8307079156    1.2430368853
O        2.0072135585   -3.3328157473    3.9865298459
S       -3.8318804628   -4.7161108212    1.0996088173
H        1.8375213697   -5.8473465996    3.5595887680
H       -2.2197083260   -4.8174487281   -2.1860898700
H        0.3326290424   -6.8072207999    1.8266699524
H       -4.8128008736   -6.9806473290    0.5630557705
H       -2.5579200051   -1.9903887271   -0.6820148351
H       -0.7698038782   -1.4889637499    0.7465486401
H       -1.0173368619   -5.1304055948    0.5224599172
23   

C       -3.4690759142   -7.3208124657   -1.9296750069
C        1.2385740823   -5.2508995258    2.8739573047
C       -2.6725533988   -5.0250371743   -1.1718906399
C        0.2733900591   -5.7558816540    2.0627003104
C       -4.3518875530   -6.1233439178    0.0484819997
C       -3.5134983977   -6.2055589573   -1.0342353303
C       -2.8957445726   -4.0950196936   -0.1864710050
C        1.4070404938   -3.8212413585    2.9683979208
C       -0.3105421251   -3.4698113699    1.4769764786
C       -2.2448063262   -2.7825088333    0.0095313721
C       -1.1350841041   -2.5282283785    0.7258710696
N       -3.4277080476   -8.2322432445   -2.6529216620
N        0.6095676574   -2.9655704530    2.2431971174
N       -0.5131032161   -4.8463506601    1.3580725485
O        2.2661682493   -3.3655071360    3.7033592804
S       -4.1514636770   -4.6191690139    0.9393802974
H        1.8930350511   -5.8823762735    3.4577556923
H       -1.9514431322   -4.8955484508   -1.9737039375
H        0.1331859690   -6.8310792114    1.9772460223
H       -5.0635029692   -6.8933924431    0.3257306906
H       -2.7240457390   -1.9340917526   -0.4691257283
H       -0.8132421060   -1.4960667142    0.7944450164
H       -1.2540420713   -5.1412509867    0.7308858776
23   

C       -3.7541288717   -7.7370831642   -0.6879526527
C        1.0828021964   -4.9745558319    3.3243996468
C       -2.5894590470   -5.4736829018   -0.6759292652
C       -0.0762186549   -5.4522164353    2.8014106267
C       -4.7056441251   -5.6862926520    0.3193680301
C       -3.7061378853   -6.3480469571   -0.3475892112
C       -2.7725535376   -4.1859538662   -0.2321593216
C        1.6355125876   -3.7441090525    2.8132590654
C       -0.1001672345   -3.5277918691    1.3167240930
C       -1.8844894846   -3.0202834267   -0.3997262297
C       -0.7333249351   -2.7612427496    0.2483604353
N       -3.7917828449   -8.8692786419   -0.9566802092
N        1.0077513429   -3.0534034026    1.8021139404
N       -0.6752968715   -4.7108776397    1.7843200980
O        2.6723701759   -3.3099862156    3.2849293184
S       -4.3291250360   -3.9867280559    0.5772593698
H        1.6143175654   -5.4835334939    4.1158230181
H       -1.7114861830   -5.8052333180   -1.2230510378
H       -0.5064949256   -6.3793609087    3.1732453531
H       -5.6279875356   -6.1524044012    0.6483816271
H       -2.2323792664   -2.2558703692   -1.0876907193
H       -0.1993745500   -1.8613162049   -0.0323593956
H       -1.5372104370   -5.0024343008    1.3356552003
23   

C       -3.6022619030   -7.7546229164   -0.5846509082
C        1.0917189181   -5.0331871934    3.2831228589
C       -2.5249155558   -5.4493830146   -0.5191816932
C       -0.1558835304   -5.4022319497    2.8924820043
C       -4.7898112738   -5.6795370879    0.0546391157
C       -3.6603724900   -6.3442828926   -0.3498942334
C       -2.8244022789   -4.1413877275   -0.2150606391
C        1.7081484997   -3.8760616481    2.6817344866
C       -0.1388471901   -3.5204630719    1.3549126134
C       -1.9631928950   -2.9534870915   -0.3040592833
C       -0.7985019569   -2.7169289226    0.3317428923
N       -3.5561895625   -8.9037496581   -0.7661294956
N        1.0520474316   -3.1475268460    1.7163085264
N       -0.7792210014   -4.6262322743    1.9163829000
O        2.8257534450   -3.5396888754    3.0335852525
S       -4.5173967101   -3.9520938330    0.2504343108
H        1.6482280824   -5.5762457634    4.0336843565
H       -1.5490278493   -5.7813841380   -0.8625277795
H       -0.6352080242   -6.2728891429    3.3343298862
H       -5.7461081211   -6.1595738052    0.2312267786
H       -2.3509573996   -2.1360001287   -0.9040782150
H       -0.2625364768   -1.8155264314    0.0597264387
H       -1.7043985728   -4.8416990155    1.5602425746
23   

C       -3.4684955570   -7.7665267795   -0.4731490310
C        1.0846935087   -5.0784511754    3.2439227452
C       -2.4823082770   -5.4226054995   -0.3641021240
C       -0.2248929375   -5.3363868254    2.9909567133
C       -4.8080039601   -5.7024321911   -0.2111151792
C       -3.6060563325   -6.3475069260   -0.3507940024
C       -2.8655498282   -4.1085318843   -0.2097524275
C        1.7397071708   -3.9961144926    2.5508788047
C       -0.1906007088   -3.5003929802    1.4002699035
C       -2.0469325253   -2.8938293911   -0.2077348503
C       -0.8758102927   -2.6647782064    0.4223335443
N       -3.3605130608   -8.9224012846   -0.5622691373
N        1.0584871139   -3.2302523996    1.6329164998
N       -0.8712205980   -4.5250252522    2.0593944035
O        2.9133794087   -3.7592067376    2.7794873950
S       -4.6211746179   -3.9574602755   -0.0846854605
H        1.6631038127   -5.6566658070    3.9504123180
H       -1.4520049847   -5.7405465209   -0.4983027919
H       -0.7338363663   -6.1494453313    3.5038021696
H       -5.7677365572   -6.2065560956   -0.1842162693
H       -2.4662632628   -2.0462657468   -0.7410785810
H       -0.3449522971   -1.7567203438    0.1630144813
H       -1.8412745957   -4.6649838297    1.7977447137
23   

C       -3.3754979754   -7.7452532704   -0.3894050364
C        1.0739033522   -5.1361019386    3.2275890242
C       -2.4412403317   -5.3836753447   -0.2239680427
C       -0.2723240714   -5.2706356887    3.1038691688
C       -4.7521023648   -5.6922723097   -0.4968066887
C       -3.5419408152   -6.3241526502   -0.3731243448
C       -2.8520739020   -4.0671543493   -0.2180395087
C        1.7600281894   -4.1328721191    2.4503540586
C       -0.2129376689   -3.4798262271    1.4642232724
C       -2.0786683971   -2.8324699897   -0.1094899704
C       -0.9083155720   -2.6098224394    0.5268110390
N       -3.2465308678   -8.9024685849   -0.3920236924
N        1.0713635970   -3.3234091063    1.5763191012
N       -0.9244258185   -4.4166664158    2.2152771456
O        2.9667962824   -4.0052807900    2.5651956157
S       -4.6019017096   -3.9408552812   -0.4313914071
H        1.6592624078   -5.7561408628    3.8916669264
H       -1.4040762212   -5.6977539248   -0.1480383589
H       -0.8047447925   -6.0224350683    3.6822437783
H       -5.6967213684   -6.2094689331   -0.6230845154
H       -2.5167036695   -1.9643473844   -0.5923011849
H       -0.3787222008   -1.6955875487    0.2880234788
H       -1.9227882060   -4.4703865636    2.0452279926
23   

C       -3.3553982076   -7.7594187506   -0.2890117728
C        1.1117610107   -5.1252537404    3.1653734639
C       -2.4615479542   -5.3848054074   -0.0935134659
C       -0.2457501027   -5.1815369244    3.1770969852
C       -4.6910596889   -5.7275296231   -0.7428093781
C       -3.5209120676   -6.3410059082   -0.3796789994
C       -2.8626177378   -4.0713657039   -0.2335140624
C        1.7749032475   -4.1828435974    2.2971316029
C       -0.2440009719   -3.4431217130    1.4822016007
C       -2.1511503952   -2.8123542944   -0.0390065839
C       -0.9804318030   -2.5647851851    0.5881849028
N       -3.2286698958   -8.9138730545   -0.2047138997
N        1.0514476306   -3.3577826085    1.4670043777
N       -0.9325720835   -4.3119305675    2.3304862035
O        2.9922646598   -4.1221578740    2.2944289467
S       -4.5518218354   -3.9746427353   -0.7472326648
H        1.7231865492   -5.7634139181    3.7875315883
H       -1.4560141973   -5.6950111471    0.1730849677
H       -0.7603990378   -5.8858978479    3.8269154449
H       -5.6006244906   -6.2585177261   -1.0002707110
H       -2.6229816259   -1.9418890886   -0.4842504465
H       -0.4781081130   -1.6328129619    0.3599961512
H       -1.9443949756   -4.3044142035    2.2664389565
23   

C       -4.2481269012   -7.2416908515    1.0215344027
C        1.1292307222   -4.9929089749    3.1394692067
C       -2.8716326808   -5.1600315869    0.5250979608
C        0.8215591256   -5.5729141853    1.9497469883
C       -4.6220759370   -5.7571319165   -0.9207046839
C       -3.9436658409   -6.0962147620    0.2198172552
C       -2.7604361569   -4.1385743421   -0.3980093149
C        0.8120137825   -3.6016146912    3.3538789091
C       -0.1227808104   -3.4462112503    1.2599333411
C       -1.8372076573   -3.0165727477   -0.5262728872
C       -0.7948012423   -2.6493256930    0.2501564303
N       -4.4903727224   -8.1817704765    1.6647033663
N        0.1811592249   -2.8632937221    2.3792035658
N        0.1988613516   -4.7772610882    0.9882672651
O        1.1023348138   -3.0759112744    4.4145051437
S       -3.9857467573   -4.2969275175   -1.6640925732
H        1.6100509630   -5.5356225684    3.9410406337
H       -2.2605945136   -5.2635953851    1.4145426852
H        1.0575059865   -6.6199262036    1.7725641651
H       -5.4568208224   -6.3209673806   -1.3214963921
H       -2.0578872190   -2.3307054131   -1.3382846320
H       -0.4642313183   -1.6196999374    0.1946448235
H       -0.0667398708   -5.1356243744    0.0780991953
23   

C       -4.3451894668   -7.2069802933    1.0164140904
C        1.1405251411   -5.1468827001    3.1486259296
C       -2.9887915372   -5.0920913774    0.6121712844
C        0.6661911807   -5.7006901973    2.0021254049
C       -4.4345717224   -5.8724217055   -1.0643299240
C       -3.9517303369   -6.1016171132    0.1973458750
C       -2.7571932226   -4.1329223614   -0.3532039301
C        0.9671043222   -3.7329712258    3.3777207624
C       -0.1510201458   -3.5001630405    1.3819832343
C       -1.8789630934   -2.9677805115   -0.3733213505
C       -0.8476421005   -2.6432061208    0.4367715884
N       -4.6590728186   -8.1146818579    1.6748097430
N        0.3098094609   -2.9447568630    2.4612774231
N        0.0234983891   -4.8556612337    1.0979154537
O        1.4028883900   -3.2320620877    4.3998972632
S       -3.7386640916   -4.4315157253   -1.7934054831
H        1.6496515205   -5.7275633674    3.9047811597
H       -2.5324824668   -5.0951194311    1.5971445198
H        0.7900950044   -6.7649501534    1.8143832597
H       -5.1636200274   -6.5039289935   -1.5595373672
H       -2.0998843982   -2.2368308836   -1.1449974562
H       -0.5279481830   -1.6084942473    0.4490001121
H       -0.3740958093   -5.1938026102    0.2287030348
23   

C       -4.4305912281   -7.1529954116    1.0102602368
C        1.1752620873   -5.1973312143    3.1117401356
C       -3.0935323135   -5.0179580772    0.6481615753
C        0.5607146280   -5.7427063481    2.0297854803
C       -4.2294014754   -5.9874383562   -1.1628368170
C       -3.9456928075   -6.0982334548    0.1736929198
C       -2.7394096104   -4.1317516525   -0.3474070289
C        1.1098966586   -3.7711947455    3.3195838622
C       -0.1702493761   -3.5063949437    1.4268003634
C       -1.9239268504   -2.9207490960   -0.2930981808
C       -0.8934295161   -2.6200102662    0.5264911410
N       -4.8184680517   -8.0195163467    1.6844109495
N        0.4213608502   -2.9610020997    2.4461167114
N       -0.1112858120   -4.8766452720    1.1681343684
O        1.6669047524   -3.2786829279    4.2854675213
S       -3.4717717055   -4.5776498562   -1.8927720930
H        1.7175374186   -5.7938640838    3.8315867852
H       -2.7918285607   -4.9183843045    1.6869978836
H        0.5999722657   -6.8162098084    1.8587835892
H       -4.8515481143   -6.6860222472   -1.7111600621
H       -2.1675702810   -2.1615441927   -1.0298907404
H       -0.5799678028   -1.5841385298    0.5714875400
H       -0.6176805526   -5.2066050221    0.3537511502
23   

C       -4.5608080042   -7.1285785807    0.9419706728
C        1.2274073047   -5.2078968453    3.0981364690
C       -3.2334060344   -4.9750175438    0.6618855109
C        0.4572951465   -5.7571555540    2.1230521066
C       -4.0117477363   -6.1047482279   -1.2429361662
C       -3.9624352506   -6.1157198710    0.1273666723
C       -2.7324729784   -4.1487683126   -0.3200279454
C        1.2729885380   -3.7731340399    3.2401630242
C       -0.1955080308   -3.5046206720    1.4888223986
C       -1.9857242357   -2.8952032933   -0.1915814842
C       -0.9538577988   -2.6053614509    0.6283814100
N       -5.0405593271   -7.9602418074    1.6006226501
N        0.5407574860   -2.9574053551    2.4084965084
N       -0.2569697876   -4.8861611004    1.3014282715
O        1.9672465234   -3.2772615849    4.1108019517
S       -3.1736584173   -4.7198408903   -1.9324735082
H        1.8139178211   -5.8073803345    3.7797842060
H       -3.1142352858   -4.7911550061    1.7261302347
H        0.4105545930   -6.8371779081    2.0027853176
H       -4.5122433454   -6.8604592104   -1.8382148823
H       -2.2654414594   -2.1109529050   -0.8882670636
H       -0.6477763168   -1.5679296117    0.6890548320
H       -0.8711902615   -5.2157502466    0.5644288668
23   

C       -4.6771223453   -7.1515824353    0.8450590505
C        1.2674588938   -5.1200419340    3.0655366930
C       -3.4030798713   -4.9573501548    0.6419725328
C        0.3686800211   -5.6886556529    2.2204467409
C       -3.7597035796   -6.2644802428   -1.2754077579
C       -3.9724510184   -6.1717251109    0.0763832338
C       -2.7580089119   -4.1824417872   -0.2941928628
C        1.3853010164   -3.6831483311    3.1107491237
C       -0.2590793090   -3.4488237660    1.5171954868
C       -2.1036579184   -2.8780463272   -0.1179319999
C       -1.0712571609   -2.5638417472    0.6896178942
N       -5.2432012080   -7.9551883860    1.4690141562
N        0.5965543417   -2.8841481551    2.3152877054
N       -0.4003124857   -4.8347212892    1.4311833559
O        2.1945298399   -3.1701562510    3.8643896655
S       -2.8593933793   -4.8914003886   -1.9084360134
H        1.9048871434   -5.7054043110    3.7128334759
H       -3.4918785137   -4.6885624610    1.6909431651
H        0.2655365999   -6.7704458275    2.1744203533
H       -4.1085971172   -7.0873463580   -1.8896449866
H       -2.4519741847   -2.0854945814   -0.7730702844
H       -0.7916389580   -1.5187891503    0.7484262513
H       -1.1026081407   -5.1781508546    0.7846112338
23   

C       -4.8021106642   -7.1376791308    0.7149446962
C        1.3288757834   -5.0774985300    3.0190613034
C       -3.5629973988   -4.9164579333    0.6134062142
C        0.3068920357   -5.6373195047    2.3210851282
C       -3.4961981830   -6.3591915673   -1.2381008779
C       -3.9791104223   -6.1855070289    0.0340553583
C       -2.7661642862   -4.1809535933   -0.2308747392
C        1.5272690526   -3.6499353582    2.9604393613
C       -0.2776405990   -3.4066479160    1.5525576624
C       -2.1811597213   -2.8446548457   -0.0123259082
C       -1.1349829466   -2.5214048686    0.7707805541
N       -5.4649296899   -7.9174197798    1.2700790585
N        0.6932348048   -2.8504203495    2.2129728456
N       -0.5037371664   -4.7841520636    1.5741187788
O        2.4475504173   -3.1456082152    3.5807194105
S       -2.5189529499   -4.9983014389   -1.7763883999
H        2.0068435174   -5.6631622373    3.6234412111
H       -3.8617187236   -4.5850141989    1.6038676676
H        0.1412259387   -6.7117462171    2.3550703821
H       -3.6955074597   -7.2327276212   -1.8491961842
H       -2.6128322258   -2.0379909804   -0.5967930313
H       -0.8657910026   -1.4735689144    0.8286761258
H       -1.2918076708   -5.1212769499    1.0314479570
23   

C       -4.9085740054   -7.1296490340    0.5620938041
C        1.3786711185   -5.0749554104    2.9588592133
C       -3.7145291590   -4.8816015735    0.5658232904
C        0.2453205946   -5.6025304974    2.4279177420
C       -3.2479421512   -6.4319954873   -1.1355178461
C       -3.9824594074   -6.1955527032   -0.0012447180
C       -2.7823596848   -4.1728936296   -0.1513889512
C        1.6570841159   -3.6708177792    2.7796331138
C       -0.2880136677   -3.3865401108    1.5822623651
C       -2.2549737479   -2.8167435636    0.1081130942
C       -1.1828331683   -2.4930368062    0.8531899286
N       -5.6556742507   -7.8935818918    1.0244247418
N        0.7878676132   -2.8602569607    2.0857091514
N       -0.5961268459   -4.7408899565    1.7265978748
O        2.6782162605   -3.1970634758    3.2474018567
S       -2.2062977022   -5.0771367295   -1.5547679327
H        2.0881210824   -5.6696308820    3.5164849170
H       -4.2063249679   -4.5043028594    1.4577083708
H        0.0178233464   -6.6585447702    2.5547624861
H       -3.3028875893   -7.3469829667   -1.7151882620
H       -2.7872437618   -1.9976614725   -0.3655839853
H       -0.9125729036   -1.4453175353    0.9069160271
H       -1.4618976331   -5.0548976037    1.3009698913
23   

C       -5.0120337358   -7.1111436610    0.3759722605
C        1.4319686827   -5.0596346003    2.9119852219
C       -3.8395716203   -4.8549817108    0.4941284008
C        0.2158532404   -5.5478297321    2.5550674407
C       -3.0578068390   -6.4835577105   -1.0072469645
C       -3.9952214610   -6.1976693269   -0.0473749086
C       -2.7893796781   -4.1723635583   -0.0686024057
C        1.7649529769   -3.6908817135    2.5996633677
C       -0.2875307090   -3.3645763783    1.6119509440
C       -2.3132658330   -2.8046981986    0.2249111366
C       -1.2142037863   -2.4712279298    0.9249885105
N       -5.8342136646   -7.8572972175    0.7264847691
N        0.8664487617   -2.8741762830    1.9514403082
N       -0.6536624171   -4.6824181353    1.8940947739
O        2.8599129756   -3.2542765196    2.9099992098
S       -1.9545517182   -5.1419693318   -1.2877230443
H        2.1685673168   -5.6604223454    3.4261790328
H       -4.4900082565   -4.4414560771    1.2590360248
H       -0.0534145531   -6.5765199825    2.7838174795
H       -3.0012095276   -7.4265072733   -1.5399531895
H       -2.9345625212   -1.9900010153   -0.1339371040
H       -0.9426571116   -1.4232159840    0.9618913600
H       -1.5760481486   -4.9705043473    1.5849147048
23   

C       -5.8349221885   -6.1548218504    0.4978752885
C        0.9829608416   -5.0683750613    3.3132569142
C       -4.0805507456   -4.3326850754    0.2144114976
C       -0.3533733492   -5.2120134000    3.1171004502
C       -3.5489335542   -6.5460479594   -0.3662818128
C       -4.5257966529   -5.7161071543    0.1220048078
C       -2.7808332314   -4.1613058387   -0.1969907950
C        1.7142797455   -4.1017952460    2.5300407219
C       -0.1992233825   -3.4882480303    1.4110968746
C       -1.9946726664   -2.9152065596   -0.2496634384
C       -0.8463385153   -2.6578933702    0.4031810305
N       -6.8977363777   -6.5124044808    0.8113897532
N        1.0766339553   -3.3243700401    1.5900036180
N       -0.9500754755   -4.4041717098    2.1510619268
O        2.9154411542   -3.9797987349    2.6976606635
S       -2.0576198184   -5.6857778531   -0.7279831532
H        1.5273764834   -5.6546079003    4.0398207308
H       -4.7152539087   -3.5259700177    0.5679082360
H       -0.9209537644   -5.9345303456    3.6992265436
H       -3.6767723215   -7.6120780927   -0.5185087347
H       -2.4159187128   -2.1045384829   -0.8359986211
H       -0.2978405552   -1.7654343832    0.1278009630
H       -1.9377015499   -4.4636686570    1.9273422991
23   

C       -5.8964287515   -6.1723350875    0.1927411642
C        1.1136093132   -5.0191947290    3.2643812410
C       -4.1349359169   -4.3387818612    0.0778744917
C       -0.2426083531   -5.0804116245    3.2164930742
C       -3.4977203239   -6.5737348098   -0.2652226567
C       -4.5473918556   -5.7335506825    0.0052832879
C       -2.7846445017   -4.1673659525   -0.1217583624
C        1.8155254773   -4.1326774769    2.3676000123
C       -0.1643966790   -3.4417185732    1.4252695749
C       -2.0392274859   -2.9018557203   -0.1500222404
C       -0.8660428283   -2.6210437912    0.4493075904
N       -6.9932179770   -6.5293247494    0.3524632238
N        1.1305009951   -3.3533229613    1.4633387562
N       -0.8888557519   -4.2712179873    2.2837475216
O        3.0328923254   -4.0838892745    2.4040002404
S       -1.9750387103   -5.7098924019   -0.4367490736
H        1.6956435081   -5.6135130680    3.9543248798
H       -4.8278972907   -3.5243811033    0.2640882994
H       -0.7876581669   -5.7417508476    3.8862551493
H       -3.5901940056   -7.6493047478   -0.3668225938
H       -2.5144884752   -2.0831652582   -0.6812602653
H       -0.3396595199   -1.7261990781    0.1409195666
H       -1.8961199025   -4.2749013802    2.1667118859
23   

C       -5.9315236170   -6.2210762224   -0.1145131181
C        1.2331257083   -4.8326948115    3.1946315373
C       -4.2153092511   -4.3427267752   -0.0492620077
C       -0.1191364234   -4.8257390560    3.3257152294
C       -3.4821679473   -6.5728315926   -0.1269530360
C       -4.5798326371   -5.7518068737   -0.0969627788
C       -2.8534702361   -4.1378474805   -0.0185599096
C        1.8505040587   -4.0296039790    2.1665738930
C       -0.2030478092   -3.2909591685    1.4465062695
C       -2.1759453275   -2.8410428053   -0.0274044152
C       -0.9928834490   -2.4976805937    0.5197457641
N       -7.0317690100   -6.6024789879   -0.1223970694
N        1.0881217253   -3.2642719465    1.3139440830
N       -0.8461981678   -4.0329744479    2.4391267049
O        3.0630006458   -4.0427700574    2.0429466670
S       -1.9717755894   -5.6724176452   -0.0928587068
H        1.8737125835   -5.4211849472    3.8360211934
H       -4.9484483900   -3.5425808607   -0.0464941379
H       -0.5998959386   -5.4233478040    4.0969143047
H       -3.5329698290   -7.6549881947   -0.1699968815
H       -2.7116692300   -2.0394429933   -0.5260819706
H       -0.5231148084   -1.5815501525    0.1841503417
H       -1.8587357469   -3.9886003102    2.4559894690
23   

C       -5.9311262223   -6.2364325793   -0.4629426564
C        1.3106590070   -4.8551600668    3.1870104940
C       -4.2299689834   -4.3649982741   -0.1762789131
C       -0.0107033780   -4.7275428984    3.4767117847
C       -3.5326237234   -6.5979616057    0.0238704966
C       -4.6013858605   -5.7725657574   -0.2095091327
C       -2.8970837661   -4.1595119234    0.1108217185
C        1.8569058904   -4.1634682389    2.0440680487
C       -0.2073533541   -3.2991533794    1.5246571000
C       -2.2385632864   -2.8584407586    0.1328959242
C       -1.0451988291   -2.5009424778    0.6484871620
N       -7.0145642046   -6.6133637605   -0.6636899236
N        1.0560394649   -3.3857002460    1.2395449761
N       -0.7791404001   -3.9264744555    2.6331618800
O        3.0404541675   -4.2848043914    1.7794591789
S       -2.0447684452   -5.7020936397    0.2977305288
H        1.9784432449   -5.4596263778    3.7843268956
H       -4.9377686319   -3.5654743270   -0.3692897699
H       -0.4366598393   -5.2398639124    4.3364210530
H       -3.5909589668   -7.6804280532    0.0364600196
H       -2.7889498968   -2.0570958109   -0.3498427701
H       -0.5990821343   -1.5757885146    0.3060051949
H       -1.7740259464   -3.7921799337    2.7711938436
23   

C       -5.0518827484   -6.7219414455   -1.8893293383
C        1.3106589700   -4.8219173818    3.2612776847
C       -3.3874579789   -4.8600859352   -1.3969714360
C        1.2960787680   -5.3364499459    2.0037630932
C       -3.6037260632   -6.6426158544    0.1142887971
C       -4.0478794555   -6.1156760707   -1.0695376889
C       -2.4381355974   -4.4809708586   -0.4702372340
C        0.6446413105   -3.5685963812    3.5233544964
C       -0.0384489567   -3.4234871494    1.3347400865
C       -1.7053181007   -3.2237986619   -0.5244066598
C       -0.7606210701   -2.7164126152    0.2939963317
N       -5.8655833322   -7.2179301164   -2.5587927519
N       -0.0191228554   -2.8983457566    2.5216008580
N        0.6192589151   -4.6144637609    1.0214625463
O        0.6604520285   -3.1058117270    4.6507747753
S       -2.3686947447   -5.6430431315    0.8661815385
H        1.8082410534   -5.3164087305    4.0834801272
H       -3.6357675842   -4.2808880563   -2.2802908391
H        1.7967889584   -6.2780272506    1.7899178878
H       -3.9709020522   -7.5673187976    0.5447442666
H       -2.0033770556   -2.5615178250   -1.3310113225
H       -0.5854394454   -1.6484598558    0.2645276469
H        0.5582315873   -4.9319844847    0.0612481326
