28

C      2.09486   -1.40087    0.09505
C      1.03736   -0.92105    0.87261
C      3.26376   -2.01575    2.09848
C      3.22815   -1.95801    0.69834
C      1.06991   -0.97868    2.27126
C      2.21131   -1.53741    2.89055
C      1.43587   -2.78591    5.00709
C      4.88538   -3.86615    0.01010
C      4.18187   -3.41868   -1.25503
C      4.38777   -2.44164   -0.11821
C     -0.09196   -0.46404    3.08880
C      2.28737   -1.66447    4.39494
O      1.13594   -2.82068    6.17815
O      1.05356   -3.78062    4.16267
H      2.03943   -1.34577   -0.98939
H      0.16478   -0.49556    0.38204
H      4.13696   -2.45029    2.58192
H      4.34061   -4.52938    0.67607
H      5.95622   -4.04271   -0.02836
H      4.77297   -3.29059   -2.15695
H      3.17415   -3.78800   -1.42237
H      5.16140   -1.69271   -0.28112
H     -0.52965   -1.24838    3.71622
H      0.21554    0.34643    3.75949
H     -0.88313   -0.07787    2.44158
H      1.98895   -0.74593    4.90512
H      3.31722   -1.86984    4.70614
H      1.35576   -3.56423    3.25975
