40

C      1.00202   -3.21939   -9.09892
C     -0.18917   -2.53617   -8.89003
C      1.93144   -3.42350   -8.06204
C      0.43444   -2.18987   -6.55787
C     -0.47613   -2.01816   -7.61781
C      1.61863   -2.89872   -6.80236
C      3.22542   -4.20629   -8.35644
C      0.20362    1.45840   -1.70712
C      0.00696   -0.02040   -1.25171
C      0.60289    1.39042   -3.20111
C      0.34435   -0.88784   -2.48499
C      0.06548    0.03258   -3.68395
C     -2.77495   -2.72502   -5.12931
C      0.68487   -0.42444   -4.98827
C     -3.12459   -2.41585   -6.57975
O      4.17299   -3.48929   -8.75656
O      3.12235   -5.44410   -8.18469
O     -1.92360   -0.02280   -6.49671
O     -2.63258   -0.99145   -8.73936
O      0.12877   -1.72127   -5.30530
S     -2.04772   -1.18865   -7.39525
Cl     2.72678   -3.14106   -5.45456
H      1.23382   -3.61583  -10.08376
H     -0.90222   -2.38129   -9.69339
H     -0.72903    2.02049   -1.58897
H      0.96128    1.97741   -1.11088
H      0.63231   -0.27542   -0.38984
H     -1.03229   -0.18520   -0.94620
H      0.21410    2.23106   -3.78447
H      1.69631    1.40156   -3.30082
H      1.40702   -1.16163   -2.48527
H     -0.22592   -1.81923   -2.52768
H     -1.01763    0.11061   -3.84076
H     -1.80823   -3.22195   -5.04144
H     -2.73581   -1.80757   -4.53783
H     -3.54486   -3.38248   -4.70963
H      1.77439   -0.51554   -4.89617
H      0.44221    0.27059   -5.79749
H     -4.11564   -1.96007   -6.67514
H     -3.08726   -3.29962   -7.22218
