25   

C        0.0105453425   -0.0883139652    1.3395807622
C        1.6315915788   -0.6648274863    2.9781618795
C       -0.8485235990   -1.0132902203    1.9325972960
C        1.2903646388    0.0991544980    1.8649608425
C        0.7131109958   -1.5752133151    3.5069113749
C        2.3068155728    1.0640187604    1.3402247223
C        2.8380537961    4.1068805953    0.8906482545
C        2.3053633173   -2.4956497447    5.2196175698
C        2.6598974900    2.9335867289   -0.0679029450
N       -0.5020911761   -1.7463375148    2.9999345121
N        0.9834202854   -2.3744109530    4.5923227391
O        3.4839548812    1.0104215590    1.6879904050
O        1.7633965729    1.9602501259    0.4871598488
H       -0.3260080826    0.4760457859    0.4787051299
H        2.6062478322   -0.5584552975    3.4337460897
H       -1.8387235009   -1.1462816702    1.5124281177
H        1.8688447434    4.5660940975    1.1069741448
H        3.2915085158    3.7699043409    1.8277533659
H        3.4915465290    4.8591235586    0.4393644538
H        3.0599953422   -2.7672403099    4.4738471996
H        2.2838913178   -3.2797610321    5.9831123068
H        2.5886265735   -1.5544665690    5.7020992097
H        3.6348252735    2.4882051500   -0.2959303206
H        2.2412044590    3.3008443549   -1.0101236023
H        0.2105274832   -2.9864872166    4.8285467098
25   

C        0.0044605569   -0.1990088695    1.2398873244
C        1.6132868913   -0.6612449422    2.9260970329
C       -0.8487903961   -1.1028669819    1.8728478396
C        1.2749854004    0.0322566773    1.7672048216
C        0.7016422186   -1.5548313000    3.4937110568
C        2.2751099011    0.9929847864    1.2060392413
C        2.9470163144    4.0384230636    1.0390635159
C        2.2871948361   -2.3586353667    5.2695444963
C        2.5523630746    3.0036991520   -0.0100074222
N       -0.5047066223   -1.7716912859    2.9826365455
N        0.9696726471   -2.2873674699    4.6256270367
O        3.4814693183    0.8378340860    1.3763156600
O        1.6782889778    2.0174135929    0.5575825281
H       -0.3273670587    0.3181191919    0.3480964703
H        2.5819293057   -0.5113607240    3.3822738249
H       -1.8324524840   -1.2719467986    1.4503072599
H        2.0530473173    4.5174951775    1.4493691498
H        3.5047035353    3.5648130075    1.8526836742
H        3.5805281911    4.8053895777    0.5840743300
H        3.0522382659   -2.6575685645    4.5451439633
H        2.2688897338   -3.1031332310    6.0717986185
H        2.5535254443   -1.3903583996    5.7058193756
H        3.4513439109    2.5394196920   -0.4309047293
H        2.0304645139    3.5061216642   -0.8304749110
H        0.2032360084   -2.8980635978    4.8853946301
25   

C        0.0073698339   -0.3064859450    1.1425429842
C        1.6014939278   -0.6426243889    2.8713682775
C       -0.8333056495   -1.1980839409    1.8091059275
C        1.2641710229   -0.0203196030    1.6729261234
C        0.7036548862   -1.5287255879    3.4717660474
C        2.2388730825    0.9462395074    1.0763455470
C        3.0749291279    3.9545610916    1.1723659832
C        2.2833143662   -2.2052409464    5.3046896048
C        2.4681711399    3.0791794818    0.0803906934
N       -0.4893589987   -1.8014704598    2.9560192136
N        0.9723989610   -2.1947385577    4.6438199239
O        3.4443369567    0.7155306211    1.0558339352
O        1.6224066748    2.0714178149    0.6528364361
H       -0.3226233967    0.1613371825    0.2233861660
H        2.5602877564   -0.4427068964    3.3288386633
H       -1.8069118240   -1.4114079638    1.3833107891
H        2.2816907547    4.4194555693    1.7653976432
H        3.7116707800    3.3571554391    1.8318605716
H        3.6848906360    4.7422106009    0.7205356147
H        3.0636487446   -2.5197449617    4.6035693344
H        2.2722465924   -2.9118571046    6.1406387562
H        2.5221651240   -1.2117589359    5.6980644065
H        3.2658596634    2.6297351178   -0.5217625152
H        1.8678495280    3.7043666095   -0.5879996307
H        0.2174175250   -2.8111026926    4.9231581451
25   

C        0.0000040461   -0.4203342068    1.0539068776
C        1.5751150576   -0.6201675352    2.8195098734
C       -0.8190560407   -1.3122625554    1.7466337327
C        1.2360438471   -0.0650175702    1.5894988981
C        0.7002425786   -1.5115203887    3.4455949660
C        2.1794534535    0.9113924770    0.9554244961
C        3.2336720067    3.8351129482    1.2662145818
C        2.2732894720   -2.0494939043    5.3296229026
C        2.4072500172    3.1370458227    0.1907734986
N       -0.4730841783   -1.8510811791    2.9246494437
N        0.9735217021   -2.1145362084    4.6502431696
O        3.3475534619    0.6199159447    0.7192021575
O        1.5883533516    2.1112718599    0.7700226404
H       -0.3303678158   -0.0060605417    0.1096886576
H        2.5185196193   -0.3642804050    3.2804379214
H       -1.7767385690   -1.5803432893    1.3157105535
H        2.5748300615    4.2625877452    2.0279497911
H        3.9188976544    3.1269589692    1.7418571323
H        3.8225731838    4.6403536407    0.8174610822
H        3.0757166735   -2.3625027708    4.6532105112
H        2.2749901231   -2.7220134496    6.1933182624
H        2.4690163937   -1.0327936057    5.6857083351
H        3.0701636904    2.7254930714   -0.5786835832
H        1.7586322872    3.8719014196   -0.2963514742
H        0.2371940241   -2.7464953867    4.9443015406
25   

C       -0.0269490480   -0.5166412906    0.9873971243
C        1.5073228748   -0.5633423129    2.7973350023
C       -0.8118506855   -1.4313950401    1.6898404920
C        1.1693194218   -0.0679607045    1.5422480382
C        0.6689935947   -1.4833253649    3.4321916760
C        2.0741851249    0.9292091628    0.8797495816
C        3.3820827731    3.7254699395    1.3305642594
C        2.2236925756   -1.8745537879    5.3671422625
C        2.3378171609    3.2158419419    0.3421804379
N       -0.4682869720   -1.9082798558    2.8947892290
N        0.9454395603   -2.0307396161    4.6623842105
O        3.1582902990    0.6037821913    0.4076517962
O        1.5506166020    2.1719013569    0.9327287296
H       -0.3520703431   -0.1598210546    0.0183059166
H        2.4217751801   -0.2386254263    3.2723640721
H       -1.7388905364   -1.7716147100    1.2431079709
H        2.8933552761    4.0886480195    2.2395650698
H        4.0812132157    2.9262137104    1.5945161455
H        3.9476090353    4.5474310628    0.8820577893
H        3.0578078351   -2.1571943540    4.7161686069
H        2.2442936403   -2.5249303954    6.2474001682
H        2.3528623555   -0.8399411178    5.7012844031
H        2.8304644231    2.8688808275   -0.5731303137
H        1.6751498245    4.0411790350    0.0634108660
H        0.2396973309   -2.6961489316    4.9578262589
25   

C       -0.0354163163   -0.6209387792    0.9244675661
C        1.4465039748   -0.5115178132    2.7729245118
C       -0.7704180703   -1.5748027709    1.6287285595
C        1.1049630317   -0.0657313930    1.5003941698
C        0.6609789282   -1.4763058995    3.4089958359
C        1.9627876354    0.9576757738    0.8134414703
C        3.5370982793    3.5983349627    1.3242662557
C        2.1919485049   -1.7151451172    5.3875461368
C        2.2984892326    3.2756348881    0.4942245383
N       -0.4273673577   -1.9958075906    2.8542845084
N        0.9457973552   -1.9768379325    4.6571278939
O        2.9039200733    0.6344106235    0.0969657522
O        1.5505995361    2.2105863176    1.0979212205
H       -0.3531721568   -0.3198967146   -0.0658145885
H        2.3224948915   -0.1118983747    3.2626575501
H       -1.6547041421   -1.9961087586    1.1647615726
H        3.2460688742    3.8706206804    2.3431921045
H        4.2080824381    2.7348018374    1.3617796415
H        4.0762224396    4.4377915554    0.8756541722
H        3.0599115984   -1.9453951133    4.7606301104
H        2.2397061048   -2.3483948663    6.2791704085
H        2.2363132413   -0.6686598853    5.7063637424
H        2.5932539333    3.0201865760   -0.5298349090
H        1.6623736239    4.1646177330    0.4386016021
H        0.2834803794   -2.6868277888    4.9494797578
25   

C       -0.0393267993   -0.7060860735    0.8711443915
C        1.3754249784   -0.4491834931    2.7559473177
C       -0.7144632084   -1.7062095863    1.5708581223
C        1.0313365455   -0.0455824336    1.4697048514
C        0.6529625896   -1.4652995987    3.3869339478
C        1.8358574251    1.0114430516    0.7719612644
C        3.6646760540    3.4759893682    1.2911384818
C        2.1439151504   -1.5518990044    5.4085154130
C        2.2808274933    3.3313208215    0.6653661789
N       -0.3742811748   -2.0789617505    2.8126486957
N        0.9449341172   -1.9259507020    4.6487056436
O        2.5925391201    0.7364299004   -0.1530253959
O        1.5694971188    2.2396673084    1.2656115009
H       -0.3454330462   -0.4530236888   -0.1362545485
H        2.2037224311    0.0252703750    3.2615538838
H       -1.5455417012   -2.2075953417    1.0885205796
H        3.5746513524    3.6305475428    2.3705214548
H        4.2637520671    2.5791558610    1.1062237210
H        4.1818464822    4.3352085778    0.8542696006
H        3.0453468325   -1.7170188566    4.8088984263
H        2.2189259204   -2.1675619559    6.3105246967
H        2.0921906290   -0.5013622272    5.7125552555
H        2.3746753953    3.1941861838   -0.4177663005
H        1.7144121814    4.2533654607    0.8297570030
H        0.3343993393   -2.6833675725    4.9347811520
25   

C       -0.0258019474   -0.7634344486    0.8257218687
C        1.3109634356   -0.3814774233    2.7450938763
C       -0.6384849639   -1.8093556541    1.5154746896
C        0.9698053838   -0.0121552857    1.4471367435
C        0.6543348787   -1.4475957675    3.3654961368
C        1.7132082991    1.0875839118    0.7530705716
C        3.7621994964    3.3769613600    1.2343812547
C        2.0878960306   -1.3974563979    5.4297245959
C        2.2872752745    3.3805543571    0.8439353199
N       -0.3047404555   -2.1449070716    2.7694808800
N        0.9486624840   -1.8767132210    4.6377978522
O        2.2721628715    0.9026981748   -0.3229993454
O        1.6120859241    2.2560960688    1.4249874581
H       -0.3188709196   -0.5452522813   -0.1938896562
H        2.0856310966    0.1596203055    3.2686718636
H       -1.4117996009   -2.3799709868    1.0143609373
H        3.8626702621    3.3962318098    2.3236902943
H        4.2589313400    2.4832203277    0.8445728007
H        4.2585860773    4.2589469703    0.8193384447
H        3.0186158056   -1.4944593730    4.8607651201
H        2.1837585964   -1.9952400429    6.3417297729
H        1.9407770405   -0.3515254257    5.7180563150
H        2.1910723502    3.3790114392   -0.2476221970
H        1.8207810835    4.2999622080    1.2114586432
H        0.3920885478   -2.6778458991    4.9147314390
25   

C        0.0287911666   -0.8096210724    0.7817315762
C        1.2668838117   -0.3354897300    2.7450069431
C       -0.5271395843   -1.9007918387    1.4485491784
C        0.9446829862    0.0132579000    1.4358329513
C        0.6711378176   -1.4500576796    3.3414446810
C        1.6187093045    1.1674762983    0.7636076975
C        3.8355256606    3.3117661316    1.1574027649
C        2.0219359049   -1.2972666908    5.4560598954
C        2.3190382096    3.4126789455    1.0228085581
N       -0.2119436153   -2.2151807164    2.7125342773
N        0.9533153951   -1.8610300206    4.6224722619
O        1.9860534255    1.1001678303   -0.4051800343
O        1.6882116498    2.2482142631    1.5742785240
H       -0.2461963332   -0.6098361854   -0.2469120937
H        1.9805905505    0.2578105716    3.2980670560
H       -1.2385109928   -2.5252894802    0.9206352862
H        4.1125872731    3.1931643410    2.2091669195
H        4.2140393955    2.4567819701    0.5888698694
H        4.3043201704    4.2210476546    0.7701190276
H        2.9785519970   -1.3247539999    4.9236338560
H        2.1267860590   -1.8855426714    6.3732384878
H        1.7860410727   -0.2650648099    5.7347568038
H        2.0468992542    3.5489186629   -0.0298728347
H        1.9680904524    4.2948328124    1.5674378973
H        0.4477994506   -2.7014585093    4.8801518025
25   

C        0.0858643716   -0.8666970853    0.7560418553
C        1.2213561849   -0.3218557174    2.7609736049
C       -0.4195409871   -1.9954631406    1.3993812966
C        0.9256943321    0.0121473110    1.4410200236
C        0.6799724696   -1.4764921734    3.3330545758
C        1.5266111330    1.2178166999    0.7911165458
C        3.8761666871    3.2446115629    1.0196678324
C        1.9347647289   -1.2411856022    5.4992871023
C        2.3645298776    3.4010369545    1.1554960892
N       -0.1276647316   -2.2953935115    2.6719634505
N        0.9420748655   -1.8741587993    4.6225939724
O        1.7012005119    1.2662201739   -0.4228480345
O        1.7815435498    2.2016743472    1.6846133256
H       -0.1717639631   -0.6789720620   -0.2795549765
H        1.8739040590    0.3094204590    3.3464959513
H       -1.0712383782   -2.6613687187    0.8456598188
H        4.3183526720    3.0055094002    1.9914326236
H        4.1160347269    2.4458997706    0.3111352461
H        4.3148232251    4.1771546308    0.6529342659
H        2.9127471353   -1.2052209136    5.0077809936
H        2.0391632025   -1.8214966949    6.4215750590
H        1.6196422709   -0.2269280995    5.7652849877
H        1.9279799350    3.6576482602    0.1837174133
H        2.1491425624    4.2286368873    1.8386125519
H        0.4823459140   -2.7460698089    4.8606400354
25   

C        0.1760647096   -0.8958127709    0.7325134229
C        1.1930840094   -0.3049847980    2.7862085373
C       -0.2853409629   -2.0601928359    1.3439708945
C        0.9360440605    0.0249057155    1.4567222080
C        0.7003686662   -1.4972026939    3.3249085405
C        1.4674248711    1.2804174288    0.8405157902
C        3.9050996467    3.2198745336    0.8666018749
C        1.8452530999   -1.2112999626    5.5456865607
C        2.4435986025    3.3939676107    1.2683536089
N       -0.0270536188   -2.3567431092    2.6240925506
N        0.9300974567   -1.8919269159    4.6215747273
O        1.4554051060    1.4451366963   -0.3760326018
O        1.9096351660    2.1599118889    1.7689637425
H       -0.0575249758   -0.7113867429   -0.3094748704
H        1.7777008651    0.3535141601    3.4118258680
H       -0.8745434875   -2.7565324945    0.7585592906
H        4.4917618821    2.8733335630    1.7226144339
H        3.9944143127    2.4927043790    0.0537632458
H        4.3125778480    4.1754039009    0.5238426480
H        2.8398498733   -1.1139831066    5.0977811463
H        1.9430625910   -1.7937153789    6.4673659753
H        1.4604403957   -0.2196510447    5.8051604398
H        1.8632692891    3.7578759561    0.4130181330
H        2.3754193741    4.1521309082    2.0547922835
H        0.5131782425   -2.7919265752    4.8323370299
25   

C       -0.2165399814   -0.1451354174    1.1670597334
C        1.6037171909   -0.9779460576    2.4288019946
C       -1.0725518599   -0.6645467327    2.1364099188
C        1.1663382290   -0.2939569980    1.2958189243
C        0.6809482937   -1.4631199052    3.3603718822
C        2.1228154593    0.2448069853    0.2788622929
C        4.7248598435    1.9348551365   -0.0427955216
C        2.4251251485   -2.2690181283    4.9830559758
C        4.4007575720    0.4708982430   -0.3241064927
N       -0.6293766164   -1.3148423984    3.2196953445
N        1.0438384816   -2.1312668248    4.5057364409
O        1.7210518728    0.8448840477   -0.7141358890
O        3.4125524201   -0.0123886527    0.5971802610
H       -0.6330054006    0.3738583727    0.3117320710
H        2.6571979105   -1.1408657200    2.6026644424
H       -2.1411878586   -0.5354412463    2.0094938713
H        3.8371939454    2.5579896087   -0.1882516717
H        5.0786482420    2.0507641968    0.9859931892
H        5.5068911868    2.2799152610   -0.7253924680
H        2.9026611110   -1.2867260354    5.0628453516
H        3.0034843033   -2.9047916540    4.3047759852
H        2.4305654398   -2.7313488034    5.9752674816
H        5.3107924057   -0.1263494687   -0.2097925695
H        4.0639242325    0.3569815623   -1.3606484094
H        0.2438650464   -2.3945314528    5.0705154131
25   

C       -0.2419983615   -0.2285931278    1.1194474309
C        1.6037034535   -0.9329982818    2.4227966294
C       -1.0809835841   -0.8030973156    2.0726380292
C        1.1442244831   -0.2867055744    1.2766654845
C        0.6967099668   -1.4780616736    3.3363941397
C        2.0854181185    0.3288016418    0.2899209015
C        4.8133283693    1.8152185455    0.0554456710
C        2.4573734790   -2.1548968305    4.9995966819
C        4.3354929286    0.4517974991   -0.4348882661
N       -0.6174690215   -1.4205984857    3.1668135631
N        1.0799870341   -2.1131303832    4.4938444817
O        1.6832328528    1.1039956417   -0.5729704655
O        3.3595006478   -0.0920785284    0.4652459360
H       -0.6733824961    0.2652394668    0.2566879274
H        2.6626854593   -1.0159110935    2.6189527853
H       -2.1530812951   -0.7447336031    1.9244615311
H        3.9824138676    2.5269784568    0.0763874159
H        5.2340269052    1.7268197163    1.0615380354
H        5.5850059704    2.2021641935   -0.6163769818
H        2.8658628981   -1.1422247240    5.0829211792
H        3.0909824600   -2.7533791208    4.3369274254
H        2.4737499879   -2.6109688411    5.9945826843
H        5.1891478704   -0.2314566093   -0.4837123154
H        3.9311032360    0.5418472763   -1.4493677522
H        0.2881854659   -2.4275021139    5.0438111636
25   

C       -0.2549330237   -0.3034743604    1.0680747832
C        1.5968584167   -0.8835585500    2.4247445353
C       -1.0796133872   -0.9339768252    1.9985553123
C        1.1261735148   -0.2730978143    1.2641520783
C        0.7038959885   -1.4892798565    3.3131673949
C        2.0555403988    0.4204452873    0.3194364472
C        4.8889631001    1.6897446337    0.1157335723
C        2.4603465756   -2.0439368711    5.0248255942
C        4.2574550564    0.4690601158   -0.5468980202
N       -0.6060431368   -1.5208326464    3.1057867351
N        1.0970525581   -2.0947186212    4.4830486940
O        1.6706283224    1.3475377114   -0.3868697693
O        3.2908826578   -0.1320214487    0.3264492013
H       -0.6922932602    0.1677393639    0.1958671559
H        2.6546827085   -0.8876294341    2.6441849867
H       -2.1489583825   -0.9452014652    1.8221394913
H        4.1308304670    2.4544777014    0.3104500411
H        5.3592506405    1.4033238213    1.0611537389
H        5.6516658444    2.1167026499   -0.5419445914
H        2.7986906099   -1.0062645089    5.1147130898
H        3.1493421679   -2.6006909175    4.3813311347
H        2.4806541155   -2.4955413026    6.0217787961
H        5.0390574554   -0.2651229741   -0.7660647238
H        3.8029513792    0.7570292863   -1.5015074579
H        0.3136543217   -2.4607317434    5.0127334083
25   

C       -0.2429384592   -0.3808982796    1.0281617037
C        1.5955274571   -0.8465957482    2.4477772817
C       -1.0553448529   -1.0717911437    1.9264946920
C        1.1245164764   -0.2642390156    1.2737204557
C        0.7149313152   -1.5165246716    3.3014132497
C        2.0434978861    0.5074387316    0.3801788917
C        4.9604762610    1.5568585669    0.1405726585
C        2.4416896649   -1.9534401260    5.0754507371
C        4.1718673204    0.5197207377   -0.6534487559
N       -0.5820438267   -1.6342975350    3.0469417878
N        1.1070271635   -2.1005115826    4.4824200711
O        1.6931068880    1.5628717369   -0.1383031492
O        3.2170185075   -0.1383438967    0.1910952182
H       -0.6790487130    0.0714842776    0.1456662449
H        2.6443639073   -0.7775157575    2.6976348984
H       -2.1151416970   -1.1513569163    1.7137980123
H        4.2932454202    2.3372359642    0.5191408908
H        5.4671239136    1.0788340746    0.9842775654
H        5.7118370129    2.0244820919   -0.5023390764
H        2.7034505874   -0.8945214569    5.1730032318
H        3.1918234682   -2.4623483278    4.4613916731
H        2.4551302418   -2.3999931281    6.0747973867
H        4.8635167018   -0.2285522263   -1.0530610738
H        3.6803789068    0.9993788648   -1.5073377830
H        0.3315718285   -2.5194032844    4.9838822209
25   

C       -0.2203051673   -0.4574427235    1.0013741366
C        1.5843951871   -0.8080383827    2.4970110842
C       -1.0198530883   -1.2117174027    1.8597955100
C        1.1230993140   -0.2501357501    1.3081342066
C        0.7172656605   -1.5455152029    3.3074911145
C        2.0296696126    0.5950169907    0.4669097161
C        5.0008801898    1.4427406010    0.1141990065
C        2.3915525021   -1.8728599019    5.1536421207
C        4.0547542215    0.6201856691   -0.7553492104
N       -0.5563795569   -1.7507959429    2.9960609462
N        1.0989664338   -2.1119455093    4.5003810364
O        1.7339821358    1.7465300979    0.1650391871
O        3.1182500865   -0.0962882479    0.0616781194
H       -0.6487578264   -0.0270403294    0.1045561474
H        2.6148105777   -0.6669832433    2.7892060298
H       -2.0616644077   -1.3623710576    1.6015999828
H        4.4435901260    2.1965238748    0.6787385237
H        5.5307893904    0.7901161935    0.8144400559
H        5.7350970752    1.9533285579   -0.5157090836
H        2.5730536438   -0.7984515274    5.2634963209
H        3.2028963237   -2.3252305967    4.5741310681
H        2.3912507633   -2.3208763836    6.1524260989
H        4.6374633550   -0.1003792663   -1.3377899469
H        3.5391554573    1.2748404067   -1.4669250792
H        0.3334861712   -2.5867134460    4.9661228734
25   

C       -0.1660495639   -0.5060722816    0.9858448265
C        1.5738987443   -0.7582040912    2.5761807842
C       -0.9607612304   -1.3196045744    1.7934628865
C        1.1409319227   -0.2152010615    1.3706004875
C        0.7131223126   -1.5584370843    3.3320157029
C        2.0469643606    0.6835808577    0.5815031330
C        5.0458342935    1.3191478449    0.0420781949
C        2.2994391924   -1.7949930142    5.2671658192
C        3.9393217737    0.7414550811   -0.8351085231
N       -0.5261537026   -1.8404624044    2.9495509638
N        1.0661185615   -2.1150436922    4.5382868499
O        1.8542539098    1.8928982210    0.5165906328
O        3.0159077256   -0.0191290977   -0.0433951811
H       -0.5707907671   -0.0983934284    0.0679249576
H        2.5763008209   -0.5560842845    2.9242614220
H       -1.9745095845   -1.5352827474    1.4764047240
H        4.6276703393    2.0122598237    0.7783733990
H        5.5696649268    0.5136011651    0.5652956273
H        5.7650693275    1.8628565165   -0.5773240520
H        2.4020842386   -0.7116847242    5.3908246485
H        3.1716729062   -2.1883438156    4.7349765724
H        2.2706896760   -2.2489331148    6.2628566640
H        4.3845989749    0.0822309256   -1.5868855296
H        3.4287071916    1.5497472790   -1.3705764206
H        0.3079845248   -2.6419197633    4.9576996913
25   

C       -0.0787853543   -0.5508385761    0.9638005962
C        1.5730880981   -0.7082871741    2.6583183946
C       -0.8695835701   -1.4179667021    1.7179852187
C        1.1784032318   -0.1785902047    1.4342456214
C        0.7184923565   -1.5655455149    3.3563342350
C        2.0927780181    0.7569022311    0.6967483108
C        5.0820682263    1.1858010025   -0.0731137749
C        2.1960160699   -1.7221921272    5.3831284424
C        3.8353499278    0.8762010400   -0.8959734448
N       -0.4758731604   -1.9189714574    2.8973508601
N        1.0325304782   -2.1125754148    4.5776542562
O        2.0511934476    1.9700045855    0.8705933511
O        2.9135645128    0.0826175792   -0.1352794962
H       -0.4471562590   -0.1700197260    0.0195899658
H        2.5392004192   -0.4498569762    3.0666510570
H       -1.8450619459   -1.6964306932    1.3363757771
H        4.8209591968    1.7790440226    0.8084763081
H        5.5599071787    0.2558803302    0.2493218056
H        5.7934244701    1.7563003979   -0.6773470450
H        2.2216273414   -0.6357987613    5.5191168258
H        3.1225241321   -2.0543241713    4.9035301586
H        2.1354480620   -2.1867597953    6.3724656666
H        4.1259477725    0.3168339076   -1.7907856235
H        3.3696617619    1.8098092257   -1.2311572361
H        0.2842769099   -2.6884536592    4.9473839073
25   

C       -0.1967621411    0.4863071839    2.0097981025
C        1.5950536691   -0.5203387440    3.1958135702
C       -0.9880985867   -0.6039747443    2.3717494241
C        1.1296548116    0.5444761474    2.4313202580
C        0.7395562985   -1.5800083704    3.5089327922
C        2.0642035502    1.6652146493    2.0816458433
C        2.5790198700    3.8694532080   -0.0523182968
C        2.5109833075   -2.9347247854    4.6698529638
C        3.3509212733    2.6131155664    0.3394672644
N       -0.5262370377   -1.6226924224    3.1105003144
N        1.1301925012   -2.6721439929    4.2466329971
O        2.4285670211    2.4871268789    2.9156493025
O        2.4514899346    1.5905213845    0.7904744583
H       -0.6169859376    1.2798583780    1.4049885333
H        2.6170253073   -0.5207199498    3.5463987830
H       -2.0192697714   -0.6309869130    2.0390636442
H        1.8504038136    3.6344368956   -0.8339632700
H        2.0538931429    4.2818209459    0.8146395057
H        3.2706491628    4.6271409123   -0.4319576664
H        3.1812472847   -2.9449405879    3.8038699100
H        2.5701336167   -3.9129874675    5.1574797545
H        2.8446016728   -2.1747067275    5.3839191233
H        4.0911732123    2.8563913965    1.1099291431
H        3.8976688536    2.2413304322   -0.5327979952
H        0.3844547773   -3.3483278178    4.3678990675
25   

C       -0.1190895622    0.4219397545    1.8976557566
C        1.6169818908   -0.5496494558    3.1933458803
C       -0.9352164460   -0.6438508553    2.2772410032
C        1.1903809309    0.4867981722    2.3689902084
C        0.7386571600   -1.5860972998    3.5198750846
C        2.1632637171    1.5647232543    1.9994691637
C        2.5685806516    3.9778067166    0.0794751949
C        2.4533382077   -2.9076851137    4.7974635370
C        3.2560557541    2.6200355767    0.1870557890
N       -0.5124436485   -1.6331299373    3.0772248107
N        1.0908142273   -2.6502752697    4.3155671912
O        2.7480653630    2.2274070631    2.8502511629
O        2.3353237666    1.6271883076    0.6609239646
H       -0.5051672010    1.1890857059    1.2383388465
H        2.6263093222   -0.5450372046    3.5796127471
H       -1.9529101565   -0.6770642956    1.9058725580
H        1.7063345779    3.9105079449   -0.5906654015
H        2.2312793961    4.3149519846    1.0643713084
H        3.2680672044    4.7178398876   -0.3200655724
H        3.1534813675   -2.9581052179    3.9568802121
H        2.4857640804   -3.8662133559    5.3251294536
H        2.7693727404   -2.1225878406    5.4921449752
H        4.1290445724    2.6959870140    0.8449807901
H        3.6176828442    2.3214612759   -0.8019237999
H        0.3346102313   -3.3146199733    4.4370583454
25   

C       -0.0631587666    0.3356159904    1.7792918302
C        1.6311893514   -0.5846201496    3.1663688020
C       -0.9000185333   -0.7002364182    2.1946507443
C        1.2362900203    0.4113282767    2.2778993148
C        0.7332171025   -1.5929712524    3.5254480835
C        2.2366573867    1.4520709803    1.8829800443
C        2.5727320478    4.0609725516    0.2240996216
C        2.4017748011   -2.8623308498    4.9120156864
C        3.1420758487    2.6551525965    0.0584271386
N       -0.5076212353   -1.6500900202    3.0556338113
N        1.0540215607   -2.6174974118    4.3839944120
O        2.9976820543    1.9584959783    2.7020906682
O        2.2153311514    1.6766181279    0.5502564483
H       -0.4253865225    1.0705151574    1.0712759219
H        2.6312423893   -0.5717933475    3.5765707134
H       -1.9089831522   -0.7426968211    1.8010710868
H        1.6181576632    4.1446915384   -0.3039566111
H        2.4171548386    4.2884846593    1.2831135384
H        3.2697460504    4.7953466518   -0.1899299509
H        3.1212203829   -2.9642695281    4.0926577705
H        2.4109897835   -3.7916412310    5.4904125897
H        2.7099301583   -2.0444549831    5.5715408066
H        4.1061774494    2.5808905361    0.5739263515
H        3.3245625648    2.4647406515   -1.0038493402
H        0.2879672118   -3.2672236361    4.5214485078
25   

C       -0.0191889392    0.2443198948    1.6655416541
C        1.6473094957   -0.6079978665    3.1289485267
C       -0.8700846253   -0.7604336167    2.1259476143
C        1.2752272714    0.3374285869    2.1769973632
C        0.7357566569   -1.5878323962    3.5302158090
C        2.2928626729    1.3492863493    1.7544323251
C        2.6092441666    4.1270470092    0.3848554708
C        2.3727159928   -2.7892901717    5.0115592799
C        3.0306472070    2.7200120516   -0.0280436156
N       -0.4980737508   -1.6628938392    3.0448406290
N        1.0345984142   -2.5636548326    4.4512269136
O        3.1950535616    1.7072084194    2.5068684570
O        2.1031844690    1.7486963904    0.4769495955
H       -0.3691042550    0.9417934982    0.9146111755
H        2.6401393757   -0.5827571521    3.5561382644
H       -1.8738732547   -0.8171276117    1.7210848829
H        1.6008440077    4.3404805877    0.0179480885
H        2.6219676290    4.2260301636    1.4745795363
H        3.3007990442    4.8612787939   -0.0384796540
H        3.1031054453   -2.9405116610    4.2096701177
H        2.3662880856   -3.6859893346    5.6393493566
H        2.6779084316   -1.9391197104    5.6303759928
H        4.0476103658    2.5170921603    0.3260381355
H        3.0470685867    2.6564826570   -1.1205974801
H        0.2616653651   -3.1996138345    4.6123129372
25   

C        0.0045462553    0.1390471424    1.5527908806
C        1.6517749399   -0.6378501857    3.0786437968
C       -0.8561084735   -0.8342232611    2.0599544352
C        1.2967201392    0.2531015914    2.0689075051
C        0.7306048153   -1.5889086981    3.5247924024
C        2.3240808932    1.2414399867    1.6137058883
C        2.6648093326    4.1529648508    0.5575257785
C        2.3440337686   -2.7111251380    5.0919035319
C        2.9095357858    2.7884709518   -0.0796513744
N       -0.4983171705   -1.6855934215    3.0313739321
N        1.0134980806   -2.5112380783    4.5042145835
O        3.3457137732    1.4523690802    2.2626771095
O        1.9878642539    1.8184027493    0.4385311760
H       -0.3396335042    0.7960168006    0.7636125908
H        2.6387938487   -0.5977798677    3.5179759380
H       -1.8565964464   -0.9076993667    1.6496507992
H        1.6350455917    4.4741667128    0.3746095679
H        2.8391832025    4.1081081190    1.6368836162
H        3.3462347869    4.8920056623    0.1262112848
H        3.0823942363   -2.9124534187    4.3085360373
H        2.3253224805   -3.5697395498    5.7706165273
H        2.6474495750   -1.8281010735    5.6638188797
H        3.9467918019    2.4788128522    0.0906290103
H        2.7664422053    2.8671509508   -1.1619170744
H        0.2355550975   -3.1335664702    4.6920786929
25   

C        0.0014460926    0.0232905577    1.4472077785
C        1.6331767285   -0.6590573192    3.0337092134
C       -0.8620983205   -0.9224451012    1.9994260872
C        1.2886617472    0.1698137672    1.9688291751
C        0.7095188185   -1.5861977742    3.5230061556
C        2.3164778368    1.1413422201    1.4788156812
C        2.7401892385    4.1390428967    0.7286218449
C        2.3081445355   -2.6137583941    5.1680647632
C        2.7782842185    2.8526274956   -0.0906164944
N       -0.5131168462   -1.7156624225    3.0217898379
N        0.9826195164   -2.4480184874    4.5587282606
O        3.4312704383    1.2111441849    1.9908912590
O        1.8634430729    1.8860432065    0.4460764992
H       -0.3383791581    0.6339424750    0.6198705795
H        2.6136400525   -0.5916262039    3.4841587506
H       -1.8579192300   -1.0221135593    1.5833323935
H        1.7248124192    4.5463119669    0.7420846164
H        3.0625715925    3.9477048018    1.7566519389
H        3.4115689727    4.8809301828    0.2865615189
H        3.0536870620   -2.8562480584    4.4033698297
H        2.2842862127   -3.4341873746    5.8923156278
H        2.6055856797   -1.7004853735    5.6937383864
H        3.8002507671    2.4579998481   -0.1164106283
H        2.4892437708    3.0759327489   -1.1223862094
H        0.2045938682   -3.0621054890    4.7716803352
