19   

C        1.7419655155   -1.2498852912   -0.1129893588
C        0.7620982518   -0.5037039091    0.5297493941
C        2.7590946773   -1.8464510357    0.6342461952
C        0.8083645213   -0.3560978669    1.9151086092
C        2.8280617124   -1.7222434619    2.0404848157
C        1.8262642399   -0.9506732063    2.6864757229
C        3.9374114945   -2.3782579180    2.7466363214
C        1.8185330146   -0.7152290673    4.1784129041
N        4.0806485544   -2.6201568664    4.0919350463
N        5.0301618460   -2.8515689983    2.1031537344
N        5.2813800161   -3.2458378812    4.2099521936
N        5.8306201184   -3.3800962913    3.0610480442
H        1.7203683410   -1.3699896583   -1.1894175723
H       -0.0305196514   -0.0369365030   -0.0425764884
H        3.5140807913   -2.4252112288    0.1147430699
H        0.0403319727    0.2343448799    2.3995543826
H        1.6345280234   -1.6559759696    4.7060304137
H        2.7789001686   -0.3015790474    4.5009863109
H        1.0351542836   -0.0066807683    4.4613636532
19   

C        1.7189312293   -1.2854590407   -0.1221532098
C        0.7494891139   -0.5211321579    0.5181748436
C        2.7346520991   -1.8833942519    0.6266346635
C        0.8058513222   -0.3538874004    1.9020325818
C        2.8048605819   -1.7452875433    2.0284876693
C        1.8220583411   -0.9504426122    2.6730367226
C        3.9194818294   -2.3869559898    2.7407815494
C        1.8484166801   -0.6895888200    4.1601047015
N        3.9607187014   -2.8158072516    4.0449196665
N        5.1183903895   -2.6198858990    2.1598426355
N        5.2160923723   -3.3133243983    4.2033097524
N        5.8847845027   -3.2008427355    3.1157286140
H        1.6908433621   -1.4163785591   -1.1971539993
H       -0.0411645569   -0.0527786111   -0.0555593661
H        3.4894973728   -2.4741874749    0.1202034346
H        0.0502440888    0.2538188957    2.3846648619
H        1.5990425888   -1.6051008361    4.7049464495
H        2.8420766605   -0.3491736311    4.4674755287
H        1.1258372983    0.0833701140    4.4361966879
19   

C        1.7096099420   -1.3009138997   -0.1277454392
C        0.7534517601   -0.5187606086    0.5144077380
C        2.7205183984   -1.9101058749    0.6193938124
C        0.8189303331   -0.3425801879    1.8979159270
C        2.7904109276   -1.7678567995    2.0176848014
C        1.8298562457   -0.9513841609    2.6651502867
C        3.9059646115   -2.4037067755    2.7384499902
C        1.8845335895   -0.6881779416    4.1506248875
N        3.8632156868   -3.0192581207    3.9642275284
N        5.1751592333   -2.4030973753    2.2762030273
N        5.1489826202   -3.3974598461    4.1957354011
N        5.9060010538   -3.0427374290    3.2228992373
H        1.6753946158   -1.4346392177   -1.2022062393
H       -0.0327050562   -0.0415817857   -0.0582264001
H        3.4735403801   -2.5106256216    0.1217057559
H        0.0771649953    0.2806510944    2.3822074078
H        1.6027873884   -1.5913789077    4.7001705234
H        2.8966430494   -0.3944743136    4.4462399869
H        1.2001161176    0.1170598273    4.4316468394
19   

C        2.0412349241   -0.7270135797   -0.1261380333
C        0.8663621168   -0.3317806442    0.5107104860
C        3.0463118821   -1.3626544715    0.6076015779
C        0.7061134756   -0.5649528772    1.8789435184
C        2.8906584990   -1.6312339081    1.9777833104
C        1.7084956498   -1.2058518280    2.6301188222
C        4.0016554027   -2.2597225452    2.7199436545
C        1.5189923011   -1.4028538960    4.1143905514
N        3.9252868615   -3.3685269878    3.5226477972
N        5.2484913278   -1.7466455279    2.7605333720
N        5.1851539951   -3.5062510050    4.0171886315
N        5.9482805736   -2.5722250226    3.5783934987
H        2.1799032531   -0.5387007556   -1.1838727400
H        0.0835646290    0.1630503769   -0.0514422227
H        3.9700469027   -1.6607290055    0.1250778134
H       -0.2056902574   -0.2394417611    2.3645319461
H        1.3973892965   -2.4672287673    4.3368216780
H        2.3909979848   -1.0271671801    4.6590555142
H        0.6338796644   -0.8689958504    4.4712339367
19   

C        2.0271937613   -0.7448611868   -0.1417696283
C        0.8609055480   -0.3362482913    0.5047781907
C        3.0397250652   -1.3744289335    0.5877745644
C        0.7141637401   -0.5522098456    1.8781163930
C        2.8974648847   -1.6165616502    1.9627401206
C        1.7241320840   -1.1859711032    2.6243539574
C        4.0014419009   -2.2501989891    2.7188404210
C        1.5550012085   -1.3854153914    4.1104200549
N        3.9797139188   -3.4996446632    3.2794873413
N        5.1577401764   -1.6256035124    3.0155042546
N        5.1848863971   -3.5988063615    3.9033894722
N        5.8642865343   -2.5199277113    3.7514108039
H        2.1521511465   -0.5726395131   -1.2039358402
H        0.0728842854    0.1532272272   -0.0547587264
H        3.9557516872   -1.6868369035    0.1001547598
H       -0.1921837649   -0.2211248043    2.3700901159
H        1.5041561199   -2.4542329079    4.3396060426
H        2.4060400466   -0.9531463863    4.6462390015
H        0.6396833879   -0.9068739341    4.4694969877
19   

C        2.0190138104   -0.7821289457   -0.1503783367
C        0.8615930891   -0.3513237391    0.4987454046
C        3.0362794174   -1.3995940530    0.5832655414
C        0.7250717146   -0.5389426367    1.8776314439
C        2.9114550334   -1.5936233301    1.9668733952
C        1.7406401997   -1.1585090924    2.6278390218
C        4.0006464738   -2.2497473894    2.7296371082
C        1.5774330057   -1.3534840936    4.1148729258
N        4.1206085390   -3.5935216855    2.9592689369
N        5.0230584174   -1.5822189202    3.2959847654
N        5.2606468047   -3.6960133851    3.6953872143
N        5.7815656748   -2.5381418955    3.8889628448
H        2.1316664303   -0.6397410419   -1.2183195723
H        0.0698961146    0.1279597618   -0.0644126343
H        3.9412241642   -1.7389761182    0.0931124856
H       -0.1783088027   -0.1999020121    2.3696310037
H        1.6283401395   -2.4191787095    4.3592090573
H        2.3792072899   -0.8344446611    4.6494374009
H        0.6167337896   -0.9613987568    4.4599614966
19   

C        2.0106322348   -0.8222689188   -0.1466885478
C        0.8629946886   -0.3616820673    0.4981415948
C        3.0277316529   -1.4272569682    0.5971465850
C        0.7339363926   -0.5137707017    1.8816920113
C        2.9214957066   -1.5676318704    1.9894390053
C        1.7504629420   -1.1195608555    2.6421232130
C        3.9981609506   -2.2489430616    2.7439291312
C        1.5805584157   -1.2943455591    4.1310367381
N        4.3357920613   -3.5707925986    2.6336842228
N        4.8598830434   -1.6116876866    3.5592653039
N        5.4120658606   -3.7013595371    3.4562085976
N        5.7153218740   -2.5729677814    3.9889649214
H        2.1147303268   -0.7160819058   -1.2197023352
H        0.0708262352    0.1077040760   -0.0726341878
H        3.9206132249   -1.7990713710    0.1079818764
H       -0.1663108332   -0.1602693844    2.3692420746
H        1.6994390311   -2.3485721942    4.4003727132
H        2.3370774151   -0.7099458132    4.6637242423
H        0.5904664330   -0.9621704217    4.4553440790
19   

C        2.0102359220   -0.8546125201   -0.1385423086
C        0.8698499545   -0.3621717441    0.4931818886
C        3.0130876140   -1.4644751349    0.6197766189
C        0.7335334578   -0.4900936622    1.8777225680
C        2.9062723215   -1.5765858363    2.0161713816
C        1.7362815276   -1.0996010505    2.6540212287
C        3.9688229597   -2.2750414679    2.7657164490
C        1.5378924766   -1.2570151049    4.1418705937
N        4.5025585926   -3.4924625077    2.4343502010
N        4.6573535591   -1.7310448502    3.7899223344
N        5.5004896246   -3.6720806145    3.3417419870
N        5.5908224658   -2.6572617801    4.1227344859
H        2.1197599663   -0.7706998090   -1.2129971279
H        0.0878925110    0.1109268512   -0.0885075846
H        3.8982197228   -1.8625034316    0.1367033410
H       -0.1638599336   -0.1153436698    2.3545739058
H        1.7177306064   -2.2950532489    4.4387867947
H        2.2370955597   -0.6110721478    4.6814375606
H        0.5188604572   -0.9870404790    4.4325471281
19   

C        1.9957674281   -0.8777557970   -0.1337828610
C        0.8686947733   -0.3644563356    0.5022477881
C        2.9959269132   -1.4942780174    0.6216999015
C        0.7437798956   -0.4786436674    1.8881725083
C        2.9027742339   -1.5971760763    2.0219132325
C        1.7436361935   -1.0946941457    2.6641849726
C        3.9744814546   -2.2924191061    2.7533898635
C        1.5329571418   -1.2378069097    4.1525016285
N        4.6747752978   -3.3738688850    2.2832343465
N        4.5039126765   -1.8806023832    3.9255309946
N        5.6051394572   -3.6131817894    3.2464980923
N        5.5075537104   -2.7526581229    4.1932739413
H        2.0981961955   -0.8041192820   -1.2097031505
H        0.0881592063    0.1142194035   -0.0767902768
H        3.8709847470   -1.9029762265    0.1290687504
H       -0.1452153288   -0.0875917620    2.3676973456
H        1.7397789194   -2.2652666920    4.4678928954
H        2.2022213722   -0.5600505163    4.6909363846
H        0.5019897678   -0.9981383055    4.4272216046
19   

C        1.9873783904   -0.8894701262   -0.1344861179
C        0.8704785577   -0.3610839067    0.5036571513
C        2.9844461918   -1.5115885802    0.6193572643
C        0.7542086497   -0.4650256001    1.8900844966
C        2.8998683855   -1.6129742853    2.0227449082
C        1.7500598044   -1.0878931681    2.6673893615
C        3.9847233421   -2.2993167802    2.7395063757
C        1.5266235376   -1.2090045308    4.1565630227
N        4.8319220933   -3.2237750695    2.1800677709
N        4.3631397251   -2.0580804643    4.0145574999
N        5.6973906230   -3.5395252591    3.1805440604
N        5.4277436634   -2.8674933629    4.2388612402
H        2.0858389621   -0.8218701249   -1.2111874387
H        0.0917295078    0.1226967334   -0.0735539199
H        3.8517948152   -1.9242381490    0.1166278286
H       -0.1279482839   -0.0593153032    2.3700895267
H        1.6901545487   -2.2408797631    4.4823989928
H        2.2148257126   -0.5491751238    4.6934305152
H        0.5038374854   -0.9295968368    4.4241568432
19   

C        1.9721414927   -0.9145681007   -0.1278617815
C        0.8613637256   -0.3783737151    0.5114132820
C        2.9715301255   -1.5321602993    0.6256169958
C        0.7557626140   -0.4678210253    1.8988015136
C        2.8958956685   -1.6285105727    2.0320643820
C        1.7533187832   -1.0870386955    2.6784127058
C        3.9953571539   -2.2994207211    2.7397823891
C        1.5313530476   -1.1673226440    4.1712889376
N        4.9787715946   -3.0429147795    2.1323171577
N        4.2340750000   -2.2555283306    4.0704810047
N        5.7861909479   -3.4428894612    3.1505336262
N        5.3570220854   -2.9887765949    4.2694474678
H        2.0652867414   -0.8555491374   -1.2055519903
H        0.0803831491    0.1027464505   -0.0650205315
H        3.8330802083   -1.9455057872    0.1138905188
H       -0.1212102609   -0.0506526160    2.3784831048
H        1.6108529255   -2.2044067669    4.5112523683
H        2.2713655360   -0.5548299740    4.6952248650
H        0.5366577224   -0.8026059417    4.4419590689
19   

C        1.9490649655   -0.9392308079   -0.1206442820
C        0.8401429982   -0.4037158504    0.5211322478
C        2.9563328054   -1.5452187290    0.6313392691
C        0.7468494993   -0.4782179329    1.9099013326
C        2.8896277786   -1.6356760368    2.0395685775
C        1.7523652063   -1.0857150915    2.6891941157
C        4.0006950205   -2.2926900077    2.7421174567
C        1.5537870004   -1.1137788789    4.1875481008
N        5.1070254751   -2.8291809219    2.1268050942
N        4.1128394592   -2.4722962588    4.0784265762
N        5.8625820165   -3.3241663374    3.1428341172
N        5.2891789121   -3.1184638003    4.2699205246
H        2.0350254175   -0.8885779120   -1.1993625471
H        0.0529182776    0.0687621339   -0.0539592311
H        3.8146627766   -1.9578505593    0.1138338823
H       -0.1260299062   -0.0545753181    2.3913616173
H        1.5254243648   -2.1473221022    4.5457398823
H        2.3655825191   -0.5758849209    4.6865219272
H        0.6119177306   -0.6355357846    4.4700802925
19   

C        1.9424466084   -0.9704944387   -0.1330891797
C        0.8319083000   -0.4337974310    0.5061810765
C        2.9548062789   -1.5637587874    0.6226176404
C        0.7440144058   -0.4900025290    1.8965465078
C        2.8879203361   -1.6436113369    2.0305377487
C        1.7547527206   -1.0844898192    2.6784273693
C        4.0035603975   -2.2841938382    2.7410324163
C        1.5865118041   -1.0640918294    4.1803191868
N        5.2119762446   -2.6069698266    2.1714373911
N        4.0017280163   -2.6898776219    4.0314136977
N        5.9175927281   -3.1971069206    3.1726959714
N        5.2197015562   -3.2453432100    4.2464751639
H        2.0255702759   -0.9303109472   -1.2124644106
H        0.0411119111    0.0289140353   -0.0719389161
H        3.8152480302   -1.9792333974    0.1107502977
H       -0.1258164735   -0.0594312673    2.3773874712
H        1.4542638367   -2.0824890703    4.5580137788
H        2.4628448971   -0.6111640383    4.6539587897
H        0.7099977522   -0.4783583379    4.4707308046
19   

C        1.9136886074   -0.9934343095   -0.1119580102
C        0.8117625774   -0.4437216065    0.5341328354
C        2.9310853757   -1.5853658680    0.6390277017
C        0.7380415694   -0.4826582300    1.9268019475
C        2.8717613131   -1.6541421603    2.0457227526
C        1.7538471665   -1.0763453883    2.7011190506
C        3.9940132613   -2.2776808864    2.7619233294
C        1.6276802721   -1.0319094359    4.2058799359
N        5.2687221423   -2.3989211717    2.2660450470
N        3.9187161950   -2.8978611801    3.9607069138
N        5.9439642512   -3.0813831840    3.2293339899
N        5.1659498636   -3.3696057455    4.2070313406
H        1.9863996669   -0.9628062515   -1.1923858858
H        0.0181232293    0.0182088202   -0.0406930458
H        3.7892624371   -2.0098196217    0.1304221285
H       -0.1210451748   -0.0389292207    2.4149397371
H        1.4291733788   -2.0351400133    4.5949073339
H        2.5502160634   -0.6489574047    4.6530442041
H        0.8076681392   -0.3764573732    4.5120263628
19   

C        1.9082949642   -1.0062947604   -0.1180430048
C        0.8128260276   -0.4411972922    0.5291896688
C        2.9233274102   -1.6034768499    0.6331323758
C        0.7429629297   -0.4682006843    1.9233931597
C        2.8608232298   -1.6648955661    2.0374840594
C        1.7560233698   -1.0682433815    2.6948031379
C        3.9825596008   -2.2750299477    2.7698264874
C        1.6554158933   -1.0227585811    4.2007103752
N        5.2999305984   -2.2009032416    2.3956145287
N        3.8556228128   -3.0999417212    3.8315526837
N        5.9495687593   -2.9743507810    3.3069190980
N        5.1177244787   -3.4932095162    4.1347053652
H        1.9780013635   -0.9816734234   -1.1988077256
H        0.0220081206    0.0247319027   -0.0462834439
H        3.7821944409   -2.0368193049    0.1331246114
H       -0.1081349878   -0.0118829069    2.4138880300
H        1.4287012171   -2.0199648863    4.5897642940
H        2.6000428477   -0.6793087074    4.6338870439
H        0.8651838723   -0.3377218066    4.5201862168
19   

C        1.9034573675   -1.0221993060   -0.1181385002
C        0.8205870325   -0.4321949205    0.5309707722
C        2.9127289053   -1.6310404146    0.6324514718
C        0.7567610633   -0.4455936997    1.9265489423
C        2.8512657270   -1.6791376454    2.0352382057
C        1.7644236525   -1.0571433436    2.6948285437
C        3.9675159454   -2.2887608050    2.7842942818
C        1.6837379238   -1.0176941696    4.2014009548
N        5.2961981904   -2.0259738623    2.5785174914
N        3.8267416922   -3.2988994247    3.6668802680
N        5.9353219081   -2.8847244264    3.4184930919
N        5.0893552822   -3.6190560609    4.0454368572
H        1.9677895066   -1.0066363933   -1.1993918663
H        0.0349766706    0.0424844132   -0.0444753602
H        3.7658110207   -2.0815264088    0.1379235324
H       -0.0833797095    0.0284538364    2.4190765748
H        1.4959304784   -2.0228093907    4.5909300462
H        2.6252770568   -0.6487260876    4.6202036192
H        0.8769836263   -0.3586376563    4.5339655894
19   

C        1.8768730702   -1.0434500436   -0.1290002558
C        0.8141190810   -0.4329771029    0.5365033584
C        2.8915205013   -1.6621186983    0.6068883607
C        0.7735603485   -0.4375105528    1.9337626747
C        2.8533038840   -1.6931356259    2.0094025463
C        1.7874170653   -1.0575900166    2.6861989474
C        3.9635459484   -2.3212377786    2.7613959464
C        1.7357788422   -1.0307511098    4.1938110590
N        5.2545553785   -1.8685507662    2.8038650450
N        3.8569347220   -3.4949659592    3.4128803299
N        5.9031786527   -2.8045773972    3.5489166196
N        5.0989842644   -3.7424533132    3.8992338450
H        1.9203076965   -1.0368707851   -1.2113775604
H        0.0247719076    0.0486537270   -0.0279452560
H        3.7286703920   -2.1315272476    0.1032999417
H       -0.0523775270    0.0481580369    2.4388030725
H        1.6342901205   -2.0490667260    4.5815393811
H        2.6573573430   -0.5950207358    4.5924335274
H        0.8888034090   -0.4363767032    4.5475756548
19   

C        1.8482315716   -1.0720529109   -0.1390924735
C        0.8045731026   -0.4377803613    0.5354729585
C        2.8740385041   -1.6826853269    0.5883560846
C        0.7898139500   -0.4160867395    1.9334917871
C        2.8707783298   -1.6678791825    1.9909939390
C        1.8153108104   -1.0264682970    2.6776962954
C        3.9666648118   -2.3211818288    2.7465600194
C        1.7844126753   -0.9938575650    4.1856395615
N        5.1318735051   -1.7238438188    3.1444680327
N        3.9413501959   -3.6094885617    3.1355332295
N        5.7987451447   -2.7156914778    3.7952969497
N        5.1141715705   -3.8023450799    3.7897802557
H        1.8659390396   -1.0929948278   -1.2220102066
H        0.0067390483    0.0370450248   -0.0227802245
H        3.6909599170   -2.1796335104    0.0784173826
H       -0.0260780268    0.0795067851    2.4451713766
H        1.7628614381   -2.0144374951    4.5805534255
H        2.6792120218   -0.4914446687    4.5663105048
H        0.9023004426   -0.4598463537    4.5496040631
19   

C        1.8211144607   -1.1004932606   -0.1357211660
C        0.7911580883   -0.4463377376    0.5399267508
C        2.8546524772   -1.6999401824    0.5897264233
C        0.7946623093   -0.3997510974    1.9370873517
C        2.8822410815   -1.6431000673    1.9916497692
C        1.8291141332   -0.9971011061    2.6798095479
C        3.9681802901   -2.3195676378    2.7367815640
C        1.7987969500   -0.9566907178    4.1878615104
N        4.9540155230   -1.7024180583    3.4600708717
N        4.0708075598   -3.6576991052    2.8548130915
N        5.6616735432   -2.7343856633    3.9946725242
N        5.1538826776   -3.8610381682    3.6461346963
H        1.8204546898   -1.1488058109   -1.2179120564
H       -0.0133516167    0.0193158791   -0.0164688851
H        3.6551702173   -2.2211347969    0.0778637218
H       -0.0162506199    0.1027334528    2.4499720177
H        1.8759235046   -1.9710640282    4.5919966679
H        2.6410346041   -0.3665777535    4.5618727019
H        0.8695241061   -0.5086044448    4.5503752252
19   

C        1.8082009619   -1.1178197548   -0.1273353176
C        0.7861091010   -0.4470497593    0.5415960745
C        2.8412468861   -1.7107312628    0.6033683542
C        0.7966047942   -0.3806798199    1.9371245774
C        2.8835714748   -1.6292174262    2.0052937515
C        1.8315385312   -0.9706701225    2.6858215172
C        3.9687841710   -2.3149232206    2.7343806191
C        1.7873583108   -0.9162565703    4.1934443705
N        4.7907623779   -1.7629099159    3.6827216582
N        4.2317044670   -3.6320631096    2.6076443522
N        5.5691766577   -2.8012702376    4.0909582948
N        5.2478427307   -3.8786175165    3.4718339007
H        1.8016406241   -1.1857396573   -1.2084616266
H       -0.0189621753    0.0135404762   -0.0181946081
H        3.6330339261   -2.2475635603    0.0936196224
H       -0.0115634468    0.1309034227    2.4453534697
H        1.9339667208   -1.9170557728    4.6119206287
H        2.5797027882   -0.2600552664    4.5659745636
H        0.8244820909   -0.5345919402    4.5441252253
19   

C        1.8043893639   -1.1334140708   -0.1170975712
C        0.7918436302   -0.4419186601    0.5424250339
C        2.8283237625   -1.7314195265    0.6212851105
C        0.8036911478   -0.3603042769    1.9362124620
C        2.8746337864   -1.6393703907    2.0247449221
C        1.8294205531   -0.9554532675    2.6944537541
C        3.9599924878   -2.3277345958    2.7434725150
C        1.7682515168   -0.8803001344    4.2009400241
N        4.6414802544   -1.8832334617    3.8485572392
N        4.3910727088   -3.5643991358    2.4127319845
N        5.5018176469   -2.8948085257    4.1424870569
N        5.3581992385   -3.8643886071    3.3150534970
H        1.7986376379   -1.2131996672   -1.1974309883
H       -0.0066691038    0.0231365771   -0.0230409335
H        3.6124209581   -2.2803945301    0.1121896488
H        0.0015639172    0.1681177856    2.4367448189
H        1.9142851230   -1.8739984383    4.6359728417
H        2.5504593581   -0.2119325922    4.5732138138
H        0.7988349946   -0.5007570945    4.5355867710
19   

C        1.7950427944   -1.1519041896   -0.1129961179
C        0.7940291889   -0.4408578448    0.5399970968
C        2.8107254478   -1.7574106177    0.6297474840
C        0.8111990332   -0.3456737832    1.9316937163
C        2.8618877488   -1.6617753798    2.0359765664
C        1.8281938520   -0.9488275322    2.6964931493
C        3.9514987207   -2.3480409588    2.7456013570
C        1.7593409752   -0.8443083441    4.2012908186
N        4.5021558135   -2.0353358892    3.9643482628
N        4.5575342931   -3.4537549456    2.2563246309
N        5.4527694302   -2.9862962399    4.1658390593
N        5.4855080189   -3.8051638051    3.1804263185
H        1.7886066920   -1.2399023714   -1.1927044949
H        0.0017154975    0.0307910650   -0.0287265581
H        3.5853001504   -2.3137802508    0.1142031410
H        0.0182352354    0.2017571415    2.4263764706
H        1.8544905266   -1.8358806185    4.6545648202
H        2.5663166087   -0.2034504952    4.5691038010
H        0.8057752351   -0.4158288452    4.5221143469
19   

C        1.7816277605   -1.1926421254   -0.1199465894
C        0.7926118071   -0.4593856038    0.5236202333
C        2.7904064640   -1.8009060498    0.6291956514
C        0.8171516750   -0.3426428996    1.9124459970
C        2.8473026993   -1.6936119805    2.0374209285
C        1.8268858853   -0.9486340175    2.6856255524
C        3.9413727971   -2.3720542649    2.7462663155
C        1.7615690938   -0.7972496651    4.1869984809
N        4.3572659753   -2.2119036962    4.0463212342
N        4.7209919248   -3.3071917447    2.1543707971
N        5.3967495697   -3.0755190881    4.1908214309
N        5.6076486088   -3.7086718845    3.0979276621
H        1.7729629584   -1.2946219348   -1.1984240926
H        0.0058114147    0.0154551832   -0.0500896486
H        3.5533533058   -2.3681803816    0.1086590775
H        0.0348669145    0.2271614701    2.3987989638
H        1.7746200754   -1.7804846268    4.6671468530
H        2.6136048628   -0.2099910006    4.5425353199
H        0.8441395652   -0.2862175255    4.4918838470
19   

C        1.7690010364   -1.2234272529   -0.1251562687
C        0.7811877379   -0.4865494807    0.5147004237
C        2.7815460366   -1.8227632994    0.6257992742
C        0.8131254352   -0.3543160807    1.9014724253
C        2.8426805552   -1.7077621576    2.0346118930
C        1.8264778898   -0.9514359991    2.6772974018
C        3.9456562309   -2.3727523235    2.7424947441
C        1.7803584904   -0.7543780683    4.1742559839
N        4.2170636832   -2.4062437882    4.0896771980
N        4.8977458642   -3.0862967864    2.0958680308
N        5.3456884677   -3.1542521191    4.2048853181
N        5.7398680225   -3.5478285029    3.0524418604
H        1.7571023330   -1.3348726771   -1.2026725686
H       -0.0083643651   -0.0180454838   -0.0604437870
H        3.5406497774   -2.3925039643    0.1026115922
H        0.0347200512    0.2239461086    2.3840471551
H        1.6934641690   -1.7212413913    4.6791666821
H        2.6876085491   -0.2468289190    4.5157215170
H        0.9217201454   -0.1431222313    4.4655774485
