24   

C       -0.6548861500    1.1795252662   -0.0051793808
C        0.5635715259    0.6605188954    0.3739303750
C        1.5239331323    1.4391078584    1.2314323659
C       -1.6114653758    0.4269614108   -0.8795399350
C       -0.1058501075   -1.5190383007   -0.6498198856
C        3.6299741930    1.7096474832    2.4879592262
C        3.6174841455    0.3563266453    0.4022125142
N        0.8921958352   -0.6570094359   -0.0218197457
N       -0.8927388033   -0.6720413293   -1.5394557151
N        2.8581489689    1.0484575137    1.4395943214
O        1.1567470494    2.4617990752    1.8123676603
H       -0.9051876928    2.1929423385    0.2860157930
H       -2.4280075449    0.0301577023   -0.2676640593
H       -2.0361988178    1.1023369250   -1.6295023566
H        0.3880451642   -2.3070063631   -1.2268694059
H       -0.7475301733   -1.9769434059    0.1107611313
H        4.5641175605    1.1711472885    2.6761967138
H        3.0623030945    1.7271171231    3.4241587139
H        3.8654596072    2.7377463633    2.1943016455
H        4.6141514747    0.7989488120    0.3058094808
H        3.1387718069    0.4624976465   -0.5768772209
H        3.7265420012   -0.7044805750    0.6456585442
H        1.7539475868   -1.0754757462    0.3083077783
H       -1.5031103547   -1.2185540880   -2.1374833122
24   

C       -0.6379611681    1.1502938355   -0.0091547673
C        0.5506660577    0.6066449144    0.4227074343
C        1.4836639374    1.3522963927    1.3368038258
C       -1.5760799694    0.4079265749   -0.9120649543
C       -0.1523623991   -1.5812927621   -0.5553958683
C        3.6273103453    1.6295601382    2.5291335075
C        3.5730736165    0.4034915404    0.3612308439
N        0.8437611481   -0.7366878973    0.0991048189
N       -0.8646552282   -0.7333082613   -1.5057971120
N        2.8386879135    1.0082535580    1.4696727478
O        1.0593535571    2.2477287168    2.0704236607
H       -0.8729224054    2.1727595777    0.2621518617
H       -2.4366610253    0.0569922817   -0.3335502471
H       -1.9367667085    1.0767949780   -1.7004521354
H        0.3409916084   -2.4015860678   -1.0859908309
H       -0.8466398083   -1.9952614179    0.1838508054
H        4.6026954807    1.1413355907    2.6201055896
H        3.1147167710    1.5328206286    3.4917561989
H        3.7823971318    2.6914348282    2.3119684792
H        4.5312029135    0.9140764319    0.2207051825
H        3.0273158590    0.5066773580   -0.5824987896
H        3.7626382235   -0.6559019586    0.5564546419
H        1.6696071733   -1.1737297453    0.4929625795
H       -1.4637136102   -1.2759532023   -2.1186331907
24   

C       -0.6154810091    1.1349079694   -0.0128856705
C        0.5351287807    0.5561018168    0.4694374941
C        1.4516438287    1.2601362917    1.4344762790
C       -1.5406928331    0.4106442469   -0.9436848623
C       -0.2184563139   -1.6271046947   -0.4779350343
C        3.6374484699    1.5473539808    2.5489676761
C        3.5208717394    0.4506233625    0.3098750039
N        0.7783466581   -0.8100112868    0.2099143187
N       -0.8490920121   -0.7715314155   -1.4789836020
N        2.8236673836    0.9718831346    1.4833608845
O        0.9954407656    2.0015302817    2.3081198512
H       -0.8244941610    2.1677266167    0.2388859147
H       -2.4412758376    0.1077971762   -0.4000501208
H       -1.8355382244    1.0752586192   -1.7624926445
H        0.2663253244   -2.4772336032   -0.9679258501
H       -0.9645016812   -1.9976146029    0.2333702040
H        4.6358064807    1.0987844921    2.5555544676
H        3.1790883903    1.3571900412    3.5248205186
H        3.7376052746    2.6281379702    2.4051979901
H        4.4368400474    1.0227869003    0.1309846653
H        2.9127979344    0.5477259233   -0.5955604651
H        3.7818790009   -0.6017431459    0.4538060910
H        1.5652624654   -1.2691471226    0.6561243965
H       -1.4397158108   -1.3033543910   -2.1092735586
24   

C       -0.5071469562    1.1343017330    0.0430149549
C        0.5973904712    0.5102105026    0.5713560688
C        1.5252271129    1.1715821667    1.5594084122
C       -1.4369660659    0.4304038628   -0.8991122462
C       -0.2361449484   -1.6586235830   -0.3340059274
C        3.7748186682    1.4991801168    2.5340994319
C        3.5366256714    0.5207750243    0.2459354226
N        0.7736027556   -0.8744890383    0.3732151711
N       -0.7871574715   -0.7989926002   -1.3788103353
N        2.9093107341    0.9633741810    1.4892608368
O        1.0793556222    1.7413016975    2.5588715580
H       -0.6712512942    2.1819711497    0.2634718677
H       -2.3689390500    0.1872767456   -0.3789937446
H       -1.6707609667    1.0851041320   -1.7451863843
H        0.2239947110   -2.5432080501   -0.7852616828
H       -1.0255469744   -1.9747838584    0.3563863543
H        4.7734880273    1.0561981643    2.4686047275
H        3.3722984940    1.2670682325    3.5253182090
H        3.8630226703    2.5853862757    2.4291269446
H        4.4052417421    1.1470988756    0.0189476233
H        2.8558034843    0.6109399405   -0.6067567668
H        3.8604204021   -0.5205731867    0.3304170984
H        1.5210974278   -1.3580292993    0.8603063260
H       -1.3808148402   -1.3180743606   -2.0168557424
24   

C       -0.4638333926    1.1605321022   -0.0471759624
C        0.5423535814    0.4744974475    0.5876943028
C        1.4425935155    1.0764774920    1.6407896329
C       -1.3529928351    0.4928831640   -1.0530092930
C       -0.3284988472   -1.6550974499   -0.3621742961
C        3.7065874218    1.5140208981    2.5537729663
C        3.4381502616    0.6915775002    0.2053111101
N        0.6595581958   -0.9197631946    0.4234904522
N       -0.7386403364   -0.7808693864   -1.4598130152
N        2.8339301781    1.0196040583    1.4943444220
O        0.9821644344    1.4307930642    2.7300846279
H       -0.5759132330    2.2214897509    0.1380685386
H       -2.3366963517    0.3124665208   -0.6078922150
H       -1.4791254231    1.1435784741   -1.9246475747
H        0.1175212750   -2.5704392606   -0.7635334661
H       -1.1910304028   -1.9169909931    0.2600976580
H        4.6892577428    1.0367185737    2.4893253818
H        3.2956986775    1.2859390432    3.5423916653
H        3.8316879254    2.5976572178    2.4620811396
H        4.2697560707    1.3715889341   -0.0049022836
H        2.7262508959    0.8020731976   -0.6189240293
H        3.8113093552   -0.3367418659    0.2111409313
H        1.3275708392   -1.4367827883    0.9863289450
H       -1.3062445698   -1.2761352519   -2.1391938288
24   

C       -0.1884140472    1.2089036057   -0.2533819967
C        0.5522816298    0.4229041400    0.5941232054
C        1.4628698054    0.9444369718    1.6808367798
C       -1.0316597440    0.6027709616   -1.3344275506
C       -0.4087924292   -1.6224596296   -0.4261628322
C        3.6796909073    1.7691031107    2.4434018582
C        3.3379407810    1.0886861571    0.0550266412
N        0.5570680834   -0.9771255633    0.4585257479
N       -0.5539386846   -0.7634977348   -1.6017259166
N        2.7953390128    1.2627738086    1.3991375188
O        1.0346027847    1.0868141815    2.8307007552
H       -0.1322636005    2.2862953266   -0.1632871154
H       -2.0765484287    0.5775592125   -1.0074288836
H       -0.9667336077    1.2108712424   -2.2424709053
H       -0.0402927590   -2.6076020909   -0.7288088440
H       -1.3711510099   -1.7396443253    0.0839209455
H        4.2621633566    0.9489174833    2.8740141946
H        3.1155099381    2.2592439542    3.2432811846
H        4.3647762523    2.5147700192    2.0280146153
H        3.2110925473    2.0067658153   -0.5268280858
H        2.8520640088    0.2632474677   -0.4745933071
H        4.4041283644    0.8469520721    0.1069413275
H        1.0626077429   -1.5437707475    1.1328319592
H       -1.0990607857   -1.2188270367   -2.3260504034
24   

C        0.0881943934    1.1783528196   -0.3704748451
C        0.6058837515    0.3650198598    0.6095581290
C        1.5434420256    0.8131615410    1.7034987796
C       -0.7598789681    0.6230658833   -1.4744712323
C       -0.5155660164   -1.6004466596   -0.3987025092
C        3.5803702560    1.9925044252    2.4716277700
C        3.2870970480    1.4317042965    0.0473781798
N        0.4682066654   -1.0294209141    0.5154659498
N       -0.4637707765   -0.8094746036   -1.6282529609
N        2.7397162011    1.4708117559    1.4003157423
O        1.1720612201    0.7613147259    2.8814887559
H        0.3077767366    2.2382317259   -0.3534505419
H       -1.8165470815    0.7607606290   -1.2204666348
H       -0.5557371840    1.1567452061   -2.4080776202
H       -0.2652583126   -2.6435471061   -0.6159049738
H       -1.5160848117   -1.5559445297    0.0453665201
H        4.1835644096    1.1871403737    2.9027270116
H        2.9709261338    2.4436420847    3.2612602903
H        4.2483567378    2.7694114473    2.0869866960
H        3.0527131394    2.3577099340   -0.4859150563
H        2.8917056506    0.5835340472   -0.5214356089
H        4.3739678219    1.3064481051    0.0829073600
H        0.8311262150   -1.6083045852    1.2677601397
H       -1.0232059135   -1.2334660457   -2.3606114198
24   

C        0.2862011494    1.0479142584   -0.4083511018
C        0.7567213743    0.2566022718    0.6147046717
C        1.7321722618    0.6823427529    1.6804015370
C       -0.6334687049    0.4999087675   -1.4577852578
C       -0.5664777721   -1.6579213005   -0.2322764340
C        3.6492518003    2.0257261189    2.4759659500
C        3.3553579008    1.5854503467    0.0312344589
N        0.4925131938   -1.1199295279    0.6146648935
N       -0.4788428068   -0.9612214459   -1.5154824860
N        2.8285266223    1.5020197880    1.3901286719
O        1.4479138240    0.4733786721    2.8664909325
H        0.5785007982    2.0885834670   -0.4602355916
H       -1.6666420979    0.7552532748   -1.1981116038
H       -0.4008806601    0.9461216142   -2.4298082590
H       -0.4194355420   -2.7322900227   -0.3805563663
H       -1.5447357298   -1.4893584524    0.2312075969
H        4.3096771037    1.2420463622    2.8608528037
H        3.0206254997    2.3961210675    3.2921579290
H        4.2601716023    2.8624757165    2.1231804358
H        3.0396675384    2.5182379503   -0.4452538844
H        3.0206157779    0.7401354971   -0.5792859366
H        4.4492977008    1.5471186516    0.0468487677
H        0.8020035518   -1.6627695127    1.4172213083
H       -1.0958799096   -1.3800409150   -2.2030979315
24   

C        0.3672925656    0.9554497868   -0.4996414782
C        0.7942941743    0.1715959400    0.5497278587
C        1.7845463329    0.5591953379    1.6139188715
C       -0.6101570562    0.4386844780   -1.5129548282
C       -0.7275965173   -1.6459632285   -0.1690922398
C        3.6175291224    1.9536366425    2.5072927808
C        3.3475405410    1.6839929868    0.0392203685
N        0.3964612129   -1.1677687956    0.6274483651
N       -0.6001263371   -1.0312593948   -1.4900527723
N        2.8213965804    1.4720095283    1.3839431005
O        1.5726753823    0.1933326314    2.7781529287
H        0.7193473985    1.9732734709   -0.5975037521
H       -1.6113533195    0.8078010135   -1.2652735168
H       -0.3442772483    0.8045446543   -2.5097053076
H       -0.6875175457   -2.7359795648   -0.2591723468
H       -1.6746790507   -1.3578167858    0.3001539338
H        4.3150704595    1.1766875468    2.8362900909
H        2.9712403686    2.2323360947    3.3459282504
H        4.1869912121    2.8427120413    2.2188768459
H        2.9768579421    2.6268334164   -0.3738140069
H        3.0706086669    0.8623394566   -0.6296790634
H        4.4416619620    1.7147260122    0.0617122402
H        0.6648304266   -1.6818980315    1.4643149938
H       -1.2662845738   -1.4260428473   -2.1451950755
24   

C        0.4555189432    0.8540269373   -0.5432386256
C        0.8691989193    0.0916738350    0.5288933241
C        1.8772197939    0.4674955574    1.5808858598
C       -0.5802183423    0.3530070014   -1.5063463372
C       -0.8206790860   -1.6322212856   -0.0349327504
C        3.6531234100    1.8900887781    2.5366195983
C        3.3617767297    1.7729391529    0.0631102147
N        0.3620997606   -1.1978726697    0.6982819981
N       -0.6862792489   -1.1086594154   -1.3934879069
N        2.8597831942    1.4492985257    1.3941779921
O        1.7663912967   -0.0343766185    2.7085851454
H        0.8466444921    1.8490710013   -0.6985593262
H       -1.5441147718    0.8151680851   -1.2672327729
H       -0.3072163800    0.6345265587   -2.5282707139
H       -0.8680154720   -2.7254066782   -0.0585732208
H       -1.7269832696   -1.2419675880    0.4409244614
H        4.3817546177    1.1203314906    2.8105891417
H        3.0067299013    2.0927902935    3.3967996805
H        4.1868422906    2.8155231067    2.2984722430
H        2.9321550538    2.7146667702   -0.2913805910
H        3.1332403866    0.9748618536   -0.6509215130
H        4.4520108286    1.8709948065    0.0837225623
H        0.6319163879   -1.6839993212    1.5525022428
H       -1.3988270223   -1.4882509815   -2.0074212326
24   

C        0.5073867294    0.7746075304   -0.6186205253
C        0.9112457098    0.0260376992    0.4688982998
C        1.9394109239    0.3808451097    1.5114207950
C       -0.5815393276    0.3004865282   -1.5368447918
C       -0.9315752375   -1.5822049246    0.0412697531
C        3.6784500838    1.7978255600    2.5374711065
C        3.3331108914    1.8745472071    0.0731624428
N        0.3015050358   -1.2019926460    0.7185738881
N       -0.7954733011   -1.1406472993   -1.3452261849
N        2.8750879528    1.4175187258    1.3796956136
O        1.9386489514   -0.2541581726    2.5762169747
H        0.9361901073    1.7423079084   -0.8281541843
H       -1.5035626120    0.8464328292   -1.3099310704
H       -0.3075101970    0.5052684285   -2.5766515310
H       -1.0615041668   -2.6683209858    0.0775551538
H       -1.7916371553   -1.0992140690    0.5177926037
H        4.4501024453    1.0447196754    2.7268032949
H        3.0467536648    1.8933143801    3.4267625283
H        4.1600367187    2.7662522415    2.3693669498
H        2.8214297691    2.7985797229   -0.2125167058
H        3.1694329002    1.1078572644   -0.6912045019
H        4.4107485084    2.0666735323    0.0956870097
H        0.5922212576   -1.6876648202    1.5671336385
H       -1.5493308153   -1.4964546100   -1.9229371221
24   

C        0.5688384877    0.6912838987   -0.6832097209
C        0.9538934336   -0.0206939428    0.4376296436
C        2.0205366897    0.3049394845    1.4564972443
C       -0.5799271972    0.2448020773   -1.5415375414
C       -1.0390378202   -1.4882502766    0.1688994499
C        3.7796380456    1.6662094687    2.5243912158
C        3.2804558745    2.0083165232    0.1115304332
N        0.2337707767   -1.1556070116    0.7952473967
N       -0.9011348924   -1.1578420734   -1.2470541310
N        2.9301715193    1.3716196207    1.3733241836
O        2.1246653086   -0.4397804835    2.4431407386
H        1.0569123711    1.6020280516   -0.9870851446
H       -1.4497526314    0.8770566787   -1.3339956918
H       -0.3186707139    0.3553484509   -2.5988606202
H       -1.2488781966   -2.5559763674    0.2862927398
H       -1.8496429919   -0.9086697870    0.6238470071
H        4.5904668725    0.9340725137    2.5940549444
H        3.1940408039    1.6393353744    3.4493694552
H        4.2107952461    2.6686397249    2.4392382967
H        2.6259838454    2.8634991362   -0.0830042264
H        3.2243922245    1.2906922259   -0.7134023191
H        4.3143566527    2.3673646163    0.1404023796
H        0.5546141024   -1.6544598802    1.6257482549
H       -1.6930086755   -1.4924174373   -1.7852172215
24   

C        0.7907428967    0.6432431497   -0.6516808837
C        0.9097584525    0.2860574384    0.6754731253
C        2.1048905462    0.4530629003    1.5801136107
C       -0.4202994867    0.2615047584   -1.4478911660
C       -1.3403724398   -0.7921988156    0.5962306292
C        4.3807565007    1.2170058226    2.1494344176
C        3.0582129397    2.4663517940    0.4469093345
N       -0.1279671115   -0.3936210564    1.3070508014
N       -1.0133131667   -0.9277785213   -0.8226715559
N        3.1908105544    1.2978017209    1.3082398399
O        2.1582302384   -0.2372509251    2.6070543357
H        1.6201724785    1.0772160192   -1.1890473605
H       -1.1391303132    1.0868672993   -1.4565173198
H       -0.1280324594    0.0366015509   -2.4790032628
H       -1.7001974892   -1.7506229190    0.9838472869
H       -2.1219006994   -0.0379956660    0.7351062429
H        5.2266980799    1.7166070940    1.6669370433
H        4.6644007257    0.1718733822    2.3117566343
H        4.1927406229    1.6906166847    3.1182810163
H        2.0154056993    2.7943091929    0.3872082338
H        3.4364782177    2.2494707299   -0.5566668826
H        3.6268561598    3.3062932401    0.8590803317
H        0.1271150106   -0.8609336377    2.1778987803
H       -1.7953030198   -1.2980516804   -1.3520770648
24   

C        0.8456710536    0.5589908127   -0.6980862877
C        0.9511232026    0.2225589343    0.6341303995
C        2.1611559364    0.3669378195    1.5172742123
C       -0.3954266879    0.2454943855   -1.4773815665
C       -1.3929568757   -0.6302427070    0.6170876288
C        4.4234565481    1.1966194950    2.0525607968
C        2.9669312960    2.4935455302    0.4960020999
N       -0.1422757083   -0.3260517206    1.3089877850
N       -1.0911841090   -0.8549042811   -0.7964289826
N        3.1970918297    1.2765115914    1.2662557957
O        2.3074322175   -0.4429251178    2.4420687848
H        1.7074195550    0.9225364653   -1.2396019503
H       -1.0387323945    1.1293461896   -1.5296050708
H       -0.1249846671   -0.0553403899   -2.4950504316
H       -1.8434487620   -1.5318665285    1.0441550817
H       -2.0954119074    0.2023214631    0.7276952989
H        5.2217229214    1.7754764856    1.5775137923
H        4.7657847253    0.1590672620    2.1247624301
H        4.2525824111    1.5875175676    3.0607215891
H        1.9016968750    2.7440789470    0.4616954410
H        3.3487413066    2.3813244335   -0.5231759829
H        3.4731503144    3.3412802395    0.9690566809
H        0.0880624866   -0.8305357237    2.1649442500
H       -1.9061251348   -1.1773273304   -1.3071494555
24   

C        0.9345962125    0.4508670461   -0.7552173457
C        1.0312674614    0.1366857259    0.5817427391
C        2.2574305897    0.2582687243    1.4441232181
C       -0.3347086595    0.2113848380   -1.5150521018
C       -1.3859643106   -0.4719558455    0.6268333210
C        4.4893333953    1.1732735621    1.9763259760
C        2.9127844080    2.4850659102    0.5489344613
N       -0.1018706154   -0.2755722777    1.2970648927
N       -1.1259128906   -0.7843501950   -0.7783989013
N        3.2354766363    1.2378943142    1.2338055706
O        2.4973590552   -0.6518936649    2.2471732873
H        1.8189967931    0.7469345313   -1.3032653139
H       -0.8947221765    1.1465407675   -1.6124621826
H       -0.0986047676   -0.1645396393   -2.5161969814
H       -1.9244538090   -1.3028384733    1.0936247872
H       -1.9953206191    0.4340459403    0.7084949243
H        5.2422688099    1.8180076263    1.5123323983
H        4.8840968651    0.1520508971    1.9777491769
H        4.3329463261    1.4973487223    3.0102259641
H        1.8328574493    2.6652240033    0.5405446824
H        3.2836269992    2.4645925565   -0.4801390690
H        3.3682562254    3.3320406695    1.0721870079
H        0.0892126757   -0.8024496632    2.1480000405
H       -1.9733972028   -1.0502336348   -1.2683460837
24   

C        0.9973971146    0.3286007321   -0.8402197063
C        1.0902957799    0.0597069192    0.5055315142
C        2.3387490393    0.1581812290    1.3406767982
C       -0.2985309803    0.1619978384   -1.5741672079
C       -1.3747794235   -0.2903493475    0.6179682136
C        4.5175943287    1.1800408995    1.9046316269
C        2.8243730388    2.4784516149    0.5976487996
N       -0.0654517282   -0.2028933676    1.2626962066
N       -1.1734847136   -0.7041141511   -0.7705557319
N        3.2439696558    1.2149821979    1.1949203880
O        2.6758889284   -0.8240829976    2.0115199263
H        1.8967042857    0.5441224269   -1.4026142378
H       -0.7681133292    1.1383079041   -1.7287622278
H       -0.1115358352   -0.2976033500   -2.5504814919
H       -1.9934783618   -1.0307734560    1.1348886008
H       -1.8796236570    0.6804540759    0.6568468070
H        5.2167120839    1.9016919085    1.4707663761
H        4.9757837982    0.1886485620    1.8285283506
H        4.3669045256    1.4237020435    2.9612356352
H        1.7343443577    2.5810910763    0.6062898387
H        3.1828733379    2.5518023062   -0.4333183448
H        3.2234958861    3.3193669857    1.1739106345
H        0.0796988683   -0.7248493765    2.1244592584
H       -2.0513634627   -0.9109354677   -1.2348736340
24   

C        1.0947548119    0.1565153793   -0.9184428794
C        1.2061771978   -0.0042587318    0.4414424750
C        2.4897199671    0.0856591881    1.2286670509
C       -0.2311362090    0.0303650193   -1.6053817563
C       -1.2737435656   -0.1304084738    0.6453776026
C        4.5619375256    1.2640080413    1.8914221395
C        2.7351444068    2.5016297035    0.7054160835
N        0.0569163519   -0.1177305528    1.2513642886
N       -1.1534353758   -0.6785192010   -0.7054419366
N        3.2765795065    1.2411770934    1.2029157454
O        2.9405758024   -0.9359865549    1.7568533046
H        1.9924561618    0.2679044528   -1.5131750723
H       -0.6225185523    1.0242757954   -1.8435154508
H       -0.1105057855   -0.5323455222   -2.5371357286
H       -1.9445794117   -0.7605232944    1.2379442000
H       -1.6823665179    0.8848438053    0.6106144353
H        5.1940602003    2.0631577452    1.4920796371
H        5.0966007221    0.3191694162    1.7501588196
H        4.4119201297    1.4319576349    2.9627093980
H        1.6404658481    2.4960255154    0.7010944418
H        3.0938663490    2.6962023250   -0.3095767034
H        3.0421693067    3.3262243203    1.3566793508
H        0.1764573263   -0.5941973227    2.1418857395
H       -2.0598961654   -0.8450201818   -1.1293774616
24   

C        1.1220014674   -0.2596235776   -0.9980130034
C        1.2612317145   -0.0472146695    0.3506390832
C        2.5810579282    0.0450680418    1.0808868911
C       -0.2292623146   -0.4459784538   -1.6171143539
C       -1.2121812141   -0.0590853332    0.6355867361
C        4.3891247944    1.3736233608    2.1465508421
C        2.4573414279    2.5258251004    1.0334556449
N        0.1335388426   -0.0175343011    1.2036228181
N       -1.1663036711   -0.8838541273   -0.5713557317
N        3.1172486479    1.2874662245    1.4350166168
O        3.1457933313   -0.9871518958    1.4546248944
H        2.0078293389   -0.3687132522   -1.6108344815
H       -0.5668512083    0.4995688323   -2.0539933791
H       -0.1717299503   -1.1968985627   -2.4119004243
H       -1.9058894984   -0.5024382302    1.3568799222
H       -1.5524905705    0.9540987807    0.3969119914
H        4.9722130858    2.2261439133    1.7846994814
H        4.9984016608    0.4781151812    1.9873697567
H        4.2116114713    1.4919036449    3.2197611043
H        1.8912186158    2.3988368412    0.1057247509
H        3.1963881459    3.3117181982    0.8494899880
H        1.7751092608    2.8600236920    1.8213013028
H        0.2588584812   -0.3541404228    2.1542186135
H       -2.0942080498   -1.0659974061   -0.9387219011
24   

C        1.1330342897   -0.5522835354   -0.9909502703
C        1.3283708612   -0.0800351267    0.2831999303
C        2.6825793926    0.0264942361    0.9474206146
C       -0.2415871101   -0.7848791536   -1.5376693039
C       -1.1381742679   -0.0010341692    0.6427684772
C        4.3165637115    1.2882495219    2.3329164375
C        2.3285423910    2.4516456685    1.3541929278
N        0.2256671295    0.0643175537    1.1612096890
N       -1.1619231726   -1.0102997092   -0.4136721048
N        3.0653536271    1.2130700668    1.5851200963
O        3.3604047149   -0.9866916971    1.1418565748
H        1.9946830704   -0.8141735438   -1.5922801699
H       -0.5583618031    0.0919320268   -2.1125047485
H       -0.2343546097   -1.6535130666   -2.2039465616
H       -1.8271251166   -0.2892931404    1.4429072456
H       -1.4412060013    0.9762420831    0.2520564003
H        5.1266198390    1.6225952900    1.6770463137
H        4.5876249316    0.3180374072    2.7609463583
H        4.2167128382    1.9931830042    3.1639187853
H        1.8115283370    2.4349973042    0.3893408028
H        3.0154443982    3.3036276174    1.3315684868
H        1.5927841857    2.6090542080    2.1485980820
H        0.3726497986   -0.1437050691    2.1443883720
H       -2.1070639143   -1.2024158930   -0.7281744728
24   

C        1.3063679174   -0.6507840011   -0.9556951927
C        1.5110209859   -0.0723983829    0.2735759628
C        2.8831141389    0.1112131348    0.8796423121
C       -0.0671632256   -0.9642295487   -1.4628534413
C       -0.9569204354   -0.0283680374    0.6552063086
C        4.4585280905    1.3159728068    2.3622188531
C        2.3688671798    2.4440383147    1.5770159715
N        0.4105884925    0.1039490798    1.1504319728
N       -0.9680648160   -1.1219594332   -0.3124985391
N        3.1793786872    1.2327199849    1.6657309460
O        3.6976910643   -0.8163375132    0.8703464555
H        2.1668595891   -0.9357419615   -1.5487014260
H       -0.4143994527   -0.1458153844   -2.1025835717
H       -0.0430475974   -1.8834806652   -2.0568902441
H       -1.6324214595   -0.2625227890    1.4839538784
H       -1.2826852159    0.9070869035    0.1878733560
H        5.2550322332    1.5743024151    1.6570401806
H        4.7014886717    0.3626501028    2.8424540294
H        4.4179307126    2.0793956733    3.1453835378
H        1.7743315286    2.4619093303    0.6579237696
H        3.0127424343    3.3289690010    1.5521775936
H        1.6957183023    2.5165870431    2.4362782497
H        0.5710011611   -0.0118226085    2.1462474262
H       -1.9115486720   -1.3599173958   -0.5994123242
24   

C       -0.1322393320    0.7035975523    0.6104966568
C        1.2057588728    0.4101298231    0.4873261585
C        2.2644390786    1.1339570470    1.2817625756
C       -1.1684291422    0.0858233862   -0.2763164960
C        0.6611048237   -1.1810857452   -1.3635899836
C        4.5514285954    1.3564409093    2.1891012187
C        3.6695816420   -0.9012365914    1.5867810395
N        1.6310827222   -0.4164764492   -0.5841634116
N       -0.5233087389   -0.3435600012   -1.5245445337
N        3.5070770232    0.5497974976    1.5666161844
O        2.1146075007    2.3249142941    1.5702844548
H       -0.4380073115    1.4472749517    1.3367251288
H       -1.6156422768   -0.7752829039    0.2316210052
H       -1.9584212884    0.8139276674   -0.4869083182
H        1.0789434646   -1.4218907640   -2.3461264710
H        0.4103561138   -2.1141184814   -0.8476665293
H        4.2826220930    1.5872845156    3.2250411699
H        4.6904360377    2.2924434488    1.6384663323
H        5.5060552739    0.8210936602    2.1836985007
H        4.2165141596   -1.2068684689    2.4843957152
H        4.2190087567   -1.2378204065    0.7029294312
H        2.7023367274   -1.4124764417    1.6228381270
H        2.5353068050   -0.2258194039   -1.0039486675
H       -1.1878260433   -0.7528698742   -2.1726171839
24   

C       -0.1956745586    0.6890980091    0.4986183252
C        1.1394761991    0.3586140981    0.4373379877
C        2.1743083608    1.0792362928    1.2626124855
C       -1.2187837050    0.0589584236   -0.3946450209
C        0.5980532887   -1.3430628109   -1.3170038466
C        4.4656355922    1.4196301495    2.1165915290
C        3.7237123092   -0.8682359614    1.4590438642
N        1.5679688609   -0.5630823864   -0.5527018493
N       -0.5410806999   -0.4718314324   -1.5849161065
N        3.4625995334    0.5678812168    1.4851786004
O        1.9348004482    2.2105146512    1.6951487951
H       -0.5094969477    1.4721512925    1.1788275995
H       -1.7234156432   -0.7502169452    0.1438101601
H       -1.9673266725    0.8037868099   -0.6837591457
H        1.0434561326   -1.6692066060   -2.2621010297
H        0.2873507232   -2.2262172536   -0.7485886864
H        4.2174666645    1.5781784407    3.1710681829
H        4.5142648582    2.3897060457    1.6111537090
H        5.4571517377    0.9606650345    2.0517086845
H        4.3533764432   -1.1528169004    2.3080677369
H        4.2306090558   -1.1505045387    0.5318269356
H        2.7968348454   -1.4426547530    1.5552427463
H        2.4940559781   -0.4394504748   -0.9484180176
H       -1.1949523776   -0.8966489418   -2.2338603287
24   

C       -0.1999161624    0.7356900821    0.5165437707
C        1.1217869391    0.3453356131    0.5089160721
C        2.1446417033    1.0133686579    1.3920490474
C       -1.2199672427    0.1409132240   -0.4041870305
C        0.5421097519   -1.3993090499   -1.1937499814
C        4.4317279021    1.3973913016    2.2360555786
C        3.7985848011   -0.8670010929    1.4174153701
N        1.5279672549   -0.6479666741   -0.4211244648
N       -0.5256100017   -0.4700798989   -1.5450377102
N        3.4597051820    0.5455869099    1.5566436671
O        1.8489117084    2.0521185234    1.9901319308
H       -0.5052811295    1.5415378637    1.1736864322
H       -1.7992104503   -0.6164650035    0.1343776943
H       -1.9054024413    0.9212434135   -0.7506498606
H        1.0035360199   -1.7928491931   -2.1048926437
H        0.1522985665   -2.2358122656   -0.6039226523
H        4.2132003990    1.4416117246    3.3078630406
H        4.4026753616    2.4114698315    1.8237486805
H        5.4466824548    1.0124456396    2.0958411400
H        4.5056535619   -1.1643844337    2.1984146779
H        4.2517250787   -1.0607881718    0.4409312888
H        2.9148554086   -1.4998859425    1.5461968063
H        2.4721605707   -0.5958727804   -0.7875983764
H       -1.1762973885   -0.8781024443   -2.2078428019
24   

C       -0.1963921871    0.7523071187    0.4796024503
C        1.1042245176    0.2970928691    0.5409100342
C        2.1042574706    0.9249758844    1.4829106116
C       -1.2095805623    0.1825215539   -0.4646336486
C        0.4715713528   -1.5168471606   -1.0729888725
C        4.3626861394    1.3539897760    2.3819287155
C        3.8872278875   -0.8443396057    1.3189331517
N        1.4769265405   -0.7813416147   -0.3107451806
N       -0.5080230069   -0.5402462762   -1.5331688182
N        3.4414906546    0.5101545496    1.6244852321
O        1.7487609024    1.8587199194    2.2082778835
H       -0.4894379140    1.5920347920    1.0988639949
H       -1.8717130804   -0.4987588272    0.0798704393
H       -1.8151617106    0.9903635242   -0.8883400029
H        0.9391415356   -2.0053900263   -1.9335931043
H       -0.0020230512   -2.2794702063   -0.4454991941
H        4.1665281369    1.2620601827    3.4548948160
H        4.2488584407    2.4026196513    2.0870514928
H        5.4005646928    1.0689688717    2.1830428732
H        4.6912177791   -1.1403996608    2.0003297421
H        4.2612217418   -0.9061223268    0.2928545718
H        3.0792676434   -1.5668510098    1.4699074027
H        2.4314926408   -0.8104903794   -0.6494814681
H       -1.1553945685   -0.9436282922   -2.2020651286
