27   

C        2.4506190080    1.0384552040   -0.4425083914
C        1.4321090195    0.2124065404   -0.9018017974
C        0.6507468049   -4.0845349392   -1.5569796563
C        2.2679078614    1.7788021270    0.7258689587
C        1.5952384577   -2.6943461989   -0.0816760992
C        0.4730904664   -2.8253622324   -0.8622485340
C        0.2555277689    0.1343142934   -0.1500410196
C        0.1294020750    0.9621628290    1.0040154286
C        1.8483866746   -4.5990340690   -1.1526394957
C       -0.7348448637   -1.9778032921   -1.0471709078
C       -2.1387382585   -0.1132650678   -0.2078837019
C       -2.1305664592    0.1539150374    1.3009399409
N        1.1316120316    1.7460414598    1.4294834386
N       -0.8344801215   -0.6707926183   -0.5504799002
O       -1.7234988655   -2.4605738505   -1.6018475186
O        2.4461246529   -3.7577187554   -0.2524637063
O       -1.0487629474    1.0080639429    1.7253666700
Br       2.5893399195   -6.2551855890   -1.7435558254
H        3.3854442855    1.1230548779   -0.9832674667
H        1.5511463217   -0.3481440345   -1.8238938225
H       -0.0421268692   -4.5380929339   -2.2590992393
H        3.0734192176    2.4149274047    1.0743085388
H        1.7960243401   -1.8831651148    0.6078646550
H       -2.9616192794   -0.7931848666   -0.4507105718
H       -2.3021478539    0.8194772738   -0.7575756511
H       -3.0821362642    0.6133139439    1.5856694412
H       -2.0541356027   -0.8002484135    1.8323617617
27   

C        2.4625383435    0.9273080893   -0.4423237981
C        1.4287625115    0.1123429497   -0.8860388864
C        0.7507309825   -3.9726018730   -1.7138091073
C        2.2843060542    1.7138248716    0.6955721418
C        1.4512520578   -2.7821613440    0.0481165459
C        0.4406688394   -2.8329804391   -0.8773501237
C        0.2380282381    0.0936246747   -0.1516760493
C        0.1224269688    0.9610250889    0.9746510890
C        1.9178738156   -4.5019967788   -1.2427766802
C       -0.7867114330   -2.0086418702   -1.0270931651
C       -2.1654578481   -0.1158247841   -0.2029903134
C       -2.1474729286    0.1956617866    1.2965827076
N        1.1392714263    1.7340417883    1.3851788660
N       -0.8695491431   -0.6974442245   -0.5386913344
O       -1.7945065342   -2.5112702930   -1.5253022508
O        2.3689761524   -3.7795782561   -0.1690023077
O       -1.0580806395    1.0552801313    1.6869807681
Br       2.7963986164   -6.0364866648   -1.9599944302
H        3.4060225177    0.9676464478   -0.9730620138
H        1.5487271122   -0.4814978728   -1.7867760717
H        0.1602427632   -4.3455014296   -2.5448320806
H        3.1015333072    2.3418178960    1.0312357128
H        1.5209696133   -2.0669475542    0.8600267023
H       -2.9972467374   -0.7933813381   -0.4205738131
H       -2.3226526804    0.8022083030   -0.7785905709
H       -3.0941600766    0.6700631596    1.5727757839
H       -2.0739406858   -0.7425122293    1.8561540138
27   

C        2.4470795134    0.8782834572   -0.4665481439
C        1.4035747437    0.0672174769   -0.8935244211
C        0.8634448785   -3.7965078223   -1.8655007417
C        2.2775245390    1.6924398451    0.6524798591
C        1.3265356065   -2.8657767764    0.1195690725
C        0.4210063895   -2.8098804713   -0.9054660756
C        0.2096545493    0.0805656152   -0.1629247176
C        0.1064663414    0.9720823142    0.9462147180
C        2.0055162612   -4.3484611179   -1.3587814736
C       -0.8359345832   -2.0217124363   -1.0067229410
C       -2.1996074653   -0.1118037557   -0.1918129628
C       -2.1645139487    0.2277144912    1.3007897827
N        1.1323535487    1.7419414993    1.3401327028
N       -0.9099663661   -0.7043723744   -0.5339465652
O       -1.8608175294   -2.5567581415   -1.4279679523
O        2.3132486277   -3.7818238655   -0.1485192017
O       -1.0702108895    1.0935683028    1.6604929004
Br       3.0255158286   -5.7250821010   -2.1985589007
H        3.3915908595    0.8939694405   -0.9967170407
H        1.5208228560   -0.5451625889   -1.7817869215
H        0.3735712398   -4.0632453981   -2.7964713117
H        3.1022218415    2.3178580645    0.9743837690
H        1.2724589760   -2.2769970357    1.0287407859
H       -3.0369409802   -0.7892048203   -0.3871802253
H       -2.3604598504    0.7961498930   -0.7821707510
H       -3.1073198567    0.7088355608    1.5785877826
H       -2.0853110372   -0.6994995842    1.8775387400
27   

C        2.4552353945    0.7963859754   -0.4557067813
C        1.3995300140   -0.0118085960   -0.8566634855
C        0.9701238858   -3.6484000793   -1.8629586653
C        2.2943432598    1.6574674508    0.6283381327
C        1.1914135193   -3.0201275735    0.2780025072
C        0.3974508850   -2.8307478625   -0.8175879479
C        0.2004763615    0.0512890469   -0.1359630360
C        0.1093829003    0.9873082250    0.9376260832
C        2.0767177441   -4.2423612918   -1.3251233174
C       -0.8776963695   -2.0641840818   -0.8981090442
C       -2.2139324719   -0.1033387676   -0.1589547443
C       -2.1722698866    0.2925489002    1.3190308331
N        1.1465596104    1.7548655803    1.3061313400
N       -0.9336735409   -0.7269789343   -0.4819238707
O       -1.9176971618   -2.6248877223   -1.2379990768
O        2.2370263719   -3.8594520636   -0.0176980057
O       -1.0668425237    1.1578287882    1.6424469239
Br       3.2323259070   -5.4479876581   -2.2479314372
H        3.4027346272    0.7733192079   -0.9801730462
H        1.5139816400   -0.6572710896   -1.7209417103
H        0.5883333752   -3.7840656931   -2.8695482740
H        3.1284826200    2.2806586247    0.9295426362
H        1.0189650962   -2.5749888473    1.2517752499
H       -3.0620770892   -0.7742834244   -0.3278018539
H       -2.3628152231    0.7838885867   -0.7829893155
H       -3.1082811239    0.7963432401    1.5790040409
H       -2.1036257366   -0.6124601363    1.9312252323
27   

C        2.4392079958    0.7515257847   -0.4962582734
C        1.3671904699   -0.0478638461   -0.8706581437
C        1.0042182217   -3.4868660508   -1.8597472250
C        2.3018963165    1.6374892105    0.5705900662
C        1.0684362295   -3.1764234084    0.3602748619
C        0.3463587292   -2.8394739172   -0.7468406872
C        0.1758631018    0.0483562053   -0.1412410954
C        0.1099774008    1.0081943243    0.9134689938
C        2.0872965008   -4.1370613617   -1.3391411897
C       -0.9420306558   -2.0837557990   -0.7849409179
C       -2.2392644122   -0.0645924210   -0.1387278105
C       -2.1798992300    0.3608085458    1.3300079302
N        1.1619738153    1.7677976831    1.2558366536
N       -0.9738260777   -0.7212094623   -0.4560735654
O       -2.0006725493   -2.6673462019   -1.0039991188
O        2.1514070094   -3.9483407913    0.0180544612
O       -1.0562921905    1.2122510665    1.6262009474
Br       3.3312785872   -5.1751638371   -2.3467242398
H        3.3814670570    0.7019212860   -1.0281759160
H        1.4642913510   -0.7108601703   -1.7227754883
H        0.6942325406   -3.4796851466   -2.8994225782
H        3.1485477394    2.2533681560    0.8511952993
H        0.8205254437   -2.8811706006    1.3738287109
H       -3.1035581312   -0.7184720311   -0.2913380323
H       -2.3725519020    0.8129280146   -0.7797999995
H       -3.1043777583    0.8876392081    1.5854549288
H       -2.1236074434   -0.5323218094    1.9606120875
27   

C        2.4465559359    0.6688633005   -0.5517158048
C        1.3511232376   -0.1112433033   -0.8984797379
C        0.9548067984   -3.3909698475   -1.8470172832
C        2.3461512004    1.5711112414    0.5054903076
C        0.9707426780   -3.3846212515    0.3945674313
C        0.2776698084   -2.8912907385   -0.6699280488
C        0.1750927306    0.0193803726   -0.1516142806
C        0.1468946049    0.9953814905    0.8905032849
C        2.0216561549   -4.1159612200   -1.3966901862
C       -1.0047449091   -2.1208092699   -0.6272724720
C       -2.2360567981   -0.0230436383   -0.1241254364
C       -2.1584524308    0.4214744184    1.3376307371
N        1.2203043690    1.7364855024    1.2059526858
N       -0.9958101168   -0.7315595200   -0.4305166991
O       -2.0853172415   -2.7023094449   -0.6733534962
O        2.0556363990   -4.1143990694   -0.0257294851
O       -1.0039330970    1.2369843668    1.6171842286
Br       3.2829439746   -5.0160428386   -2.5099043249
H        3.3788896164    0.5914909867   -1.0975304851
H        1.4189021416   -0.7841457003   -1.7440810311
H        0.6702494311   -3.2400672193   -2.8829320605
H        3.2106007239    2.1713407789    0.7649036779
H        0.7011920395   -3.2284477156    1.4332201577
H       -3.1258829173   -0.6427691860   -0.2723209242
H       -2.3346757243    0.8498271021   -0.7777468957
H       -3.0627618366    0.9852353700    1.5862594861
H       -2.1329597610   -0.4636349036    1.9814329161
27   

C        2.2240204204    1.6210838123   -0.0995980224
C        1.5560584273    0.4458028377    0.2187980678
C        1.0652362269   -1.6666911575   -2.3015766167
C        1.4983154187    2.7432712286   -0.4953602294
C        2.0106590930   -2.8991593359   -0.6836494761
C        0.8692632937   -2.2134426087   -0.9767355599
C        0.1611886485    0.4211442699    0.1095310497
C       -0.5055614055    1.6255129292   -0.2674130152
C        2.3086710558   -2.0668805563   -2.7008763767
C       -0.3122911924   -2.0128148807   -0.0843297102
C       -1.9322639618   -0.4354660141    0.9457382216
C       -2.6275772336    0.4885001839   -0.0569655651
N        0.1640180162    2.7485239133   -0.5704382352
N       -0.6057148168   -0.7331354794    0.4114923997
O       -1.1123461569   -2.9198301643    0.1307817775
O        2.9051868344   -2.8219532833   -1.7225712065
O       -1.8850674709    1.6951897862   -0.3203018865
Br       3.1144928068   -1.6318333575   -4.3745056624
H        3.3038199669    1.6806846086   -0.0396357093
H        2.1162865760   -0.4179296061    0.5551537501
H        0.3718158058   -1.0549882719   -2.8691547778
H        2.0345034712    3.6520914167   -0.7431688365
H        2.1934130983   -3.4260274532    0.2463576679
H       -1.8384678232    0.0639451748    1.9155273257
H       -2.5392600800   -1.3333821210    1.0974659129
H       -2.7755730401   -0.0502035557   -0.9986130913
H       -3.6157901445    0.7547197004    0.3301857293
27   

C        2.1173030925    1.7050624660   -0.3748034610
C        1.4903545317    0.5031897504   -0.0732534466
C        0.8148837857   -1.3976078854   -2.5511661861
C        1.3514452578    2.8494498989   -0.5891034877
C        1.7751605004   -2.9532407808   -1.2477093795
C        0.6989997579   -2.1155184366   -1.2998871418
C        0.0917572005    0.4759256581   -0.0152742456
C       -0.6127787466    1.7014041934   -0.2121406070
C        1.9528091328   -1.8571706379   -3.1510759156
C       -0.3403489719   -1.9698123172   -0.2406036901
C       -1.8971442944   -0.4665142852    0.9828960003
C       -2.6960681724    0.5332212470    0.1431455532
N        0.0177928383    2.8499433745   -0.5032464171
N       -0.6327333953   -0.7049038725    0.2915098714
O       -1.0294220677   -2.9255795242    0.1109736875
O        2.5568739883   -2.8085628904   -2.3677231555
O       -1.9880606262    1.7652569107   -0.0934534385
Br       2.6209586965   -1.2574511681   -4.8343790039
H        3.1966125691    1.7676526366   -0.4404693091
H        2.0863063435   -0.3807490757    0.1212017601
H        0.1420743516   -0.6402032289   -2.9397934571
H        1.8557168910    3.7792613492   -0.8258078657
H        1.9889508720   -3.6348973052   -0.4317504855
H       -1.7042722940   -0.0535001605    1.9783192257
H       -2.4858913205   -1.3799378338    1.1124046545
H       -2.9430697203    0.0760005952   -0.8205120276
H       -3.6377076658    0.7552770816    0.6544117034
27   

C        2.0315360090    2.2310343138    0.4006911997
C        1.5858827755    0.9195288354    0.4996540997
C        1.8425915599   -0.8168883667   -2.0658996878
C        1.1289373612    3.2459584635    0.0884211614
C        2.6322404356   -2.5340160297   -0.8506429574
C        1.5436619145   -1.7172730717   -0.9719578377
C        0.2325420127    0.6545391034    0.2576285147
C       -0.6295004290    1.7574748779   -0.0188934747
C        3.0906300675   -1.1541584529   -2.5073184771
C        0.3290972189   -1.8118124319   -0.1172267022
C       -1.7098574246   -0.6947645465    0.7615251905
C       -2.4927507039    0.2302916342   -0.1740722670
N       -0.1725416511    3.0161934884   -0.1106711126
N       -0.3103068991   -0.6529287378    0.3469620282
O       -0.1856667723   -2.9017984157    0.1307515879
O        3.5930749617   -2.1997598916   -1.7737867859
O       -1.9892627432    1.5798587482   -0.1882292099
Br       4.0138335968   -0.2930870976   -3.9376863186
H        3.0725765100    2.4781813673    0.5689657591
H        2.2809549105    0.1320096676    0.7682685520
H        1.2111835678   -0.0279774770   -2.4615669545
H        1.4929436847    4.2640816592    0.0123126547
H        2.7268811570   -3.3348184915   -0.1252395169
H       -1.8018339507   -0.3506412965    1.7967883200
H       -2.1336406856   -1.7023803719    0.7063515940
H       -2.4535474673   -0.1719418017   -1.1915868511
H       -3.5423066206    0.2441161491    0.1352162834
27   

C        2.2407970267    1.7141411439    0.3008472192
C        1.5917992545    0.5141745513    0.5608382773
C        1.9438691146   -1.6859268251   -1.5296255886
C        1.5484139603    2.7548374613   -0.3159786445
C        2.0959533606   -3.4443754315   -0.1382302824
C        1.3037925951   -2.3655411756   -0.4213422423
C        0.2545355535    0.3814400949    0.1691513361
C       -0.3901433781    1.5095468746   -0.4197481726
C        3.0791462972   -2.3931809679   -1.8074926055
C        0.0222769917   -2.1031460243    0.2842891723
C       -1.9146145784   -0.5844936849    0.6208932394
C       -2.4339937813    0.2324132108   -0.5657672205
N        0.2613123091    2.6575850992   -0.6631138433
N       -0.4869405902   -0.8026095334    0.4084435708
O       -0.6524201854   -3.0356222783    0.7230644259
O        3.1944257416   -3.4684641746   -0.9628946128
O       -1.7313806218    1.4765963260   -0.7503356159
Br       4.3305497873   -1.9554109458   -3.1794492098
H        3.2786156662    1.8555099284    0.5767656828
H        2.1186674681   -0.2900639386    1.0628293186
H        1.5995108985   -0.7973755674   -2.0488192645
H        2.0698071422    3.6840496725   -0.5149276936
H        1.8861493836   -4.1824729964    0.6285612788
H       -2.0728875855   -0.0366447819    1.5555040584
H       -2.4755574878   -1.5223503931    0.6831641381
H       -2.3409479551   -0.3636722406   -1.4793741617
H       -3.4974701759    0.4418661539   -0.4154424038
27   

C        2.0926425127    2.0891500684    0.5865040808
C        1.5539473627    0.8216008130    0.7655931075
C        2.1850587670   -1.2428652676   -1.3676161379
C        1.3159853051    3.0957883933    0.0147267129
C        2.2635820606   -3.2101070061   -0.2842429381
C        1.5226408873   -2.0611816056   -0.3701565069
C        0.2414867982    0.5898443283    0.3387140500
C       -0.4972783481    1.6862620938   -0.1967447196
C        3.2849546389   -1.9452423709   -1.7715043084
C        0.2394416862   -1.9101261312    0.3632556101
C       -1.8340294269   -0.5905727357    0.7101500317
C       -2.4167700116    0.2410855929   -0.4366561636
N        0.0487123143    2.9010992683   -0.3631314731
N       -0.3913238227   -0.6665129290    0.5041143082
O       -0.3231616892   -2.8980220499    0.8392607729
O        3.3567341957   -3.1466153113   -1.1136798915
O       -1.8268341697    1.5508831139   -0.5479455397
Br       4.5394442374   -1.3519276493   -3.0808668234
H        3.1082123516    2.3093610371    0.8919753062
H        2.1439068973    0.0403269707    1.2330860558
H        1.8760938012   -0.2741073678   -1.7461779090
H        1.7516120715    4.0789836766   -0.1209809158
H        2.0210908789   -4.0599200346    0.3450852876
H       -2.0490550082   -0.1132976731    1.6717487519
H       -2.3055133922   -1.5785460954    0.7113690304
H       -2.2655421539   -0.2936842692   -1.3799155687
H       -3.4956198404    0.3468669362   -0.2869435340
27   

C        2.3488990255    1.8457772986   -0.4836962576
C        1.5361548032    0.7899000314   -0.8766159752
C        2.1647754007   -1.9203341445    0.3418845269
C        1.9240158183    2.7056981728    0.5286542746
C        1.3887264879   -3.6127286648   -0.9143624988
C        1.0961087892   -2.3214185667   -0.5555801647
C        0.3162696097    0.6104557445   -0.2163923612
C       -0.0637481976    1.5625891881    0.7747091808
C        3.0297429465   -2.9755559585    0.4082424420
C       -0.2114801005   -1.7240833468   -0.9375628832
C       -1.9885520395   -0.0786276186   -0.4037700398
C       -2.1674100742    0.4045237190    1.0394025664
N        0.7427919722    2.5713461919    1.1399371751
N       -0.5811630653   -0.4230803777   -0.5727724028
O       -1.0283310265   -2.3917337384   -1.5756158390
O        2.5799663452   -4.0157354253   -0.3625647374
O       -1.3018422956    1.5036916479    1.3860945588
Br       4.6254814443   -3.0154529515    1.4535217603
H        3.3076471877    2.0156127120   -0.9581885356
H        1.8456492607    0.1284453320   -1.6793381690
H        2.2682982967   -0.9926810345    0.8936643625
H        2.5708664021    3.5227550264    0.8267587943
H        0.7654245902   -4.2424223857   -1.5406081833
H       -2.6484087636   -0.9339934370   -0.5811637086
H       -2.2663324031    0.7136172937   -1.1065840674
H       -3.2081723033    0.7092891423    1.1859945039
H       -1.9683280855   -0.4274242989    1.7226343705
27   

C        2.3750417582    1.7406369901   -0.4535419528
C        1.5419436498    0.6953407065   -0.8306745657
C        2.0452115722   -1.9952590491    0.4807016002
C        1.9546695772    2.6414112621    0.5238571551
C        1.4925105914   -3.5225807487   -1.0722985548
C        1.0552101383   -2.3484953684   -0.5185140411
C        0.3036120828    0.5673047771   -0.1913963196
C       -0.0663401501    1.5570287655    0.7668551024
C        3.0110177755   -2.9596167155    0.4217926853
C       -0.2666874435   -1.7698734242   -0.8720753403
C       -2.0168929204   -0.0814905948   -0.3750847087
C       -2.1926057401    0.4486003610    1.0512790376
N        0.7597168157    2.5554913040    1.1166062489
N       -0.6150801723   -0.4557535588   -0.5315164083
O       -1.1103521121   -2.4572747123   -1.4506326085
O        2.6969816616   -3.8974461772   -0.5285048007
O       -1.3122515530    1.5453837445    1.3643032284
Br       4.5715617766   -3.0107684365    1.5182783587
H        3.3466578526    1.8705468744   -0.9142723458
H        1.8519014201    0.0057078896   -1.6086927662
H        2.0316467047   -1.1509258991    1.1620129813
H        2.6173657250    3.4502564940    0.8092734434
H        0.9610806846   -4.0872184072   -1.8311161049
H       -2.6921435858   -0.9295610970   -0.5274295118
H       -2.2796178033    0.6934955853   -1.1024573742
H       -3.2290680311    0.7732384378    1.1849957370
H       -2.0073809418   -0.3641809934    1.7609681218
27   

C        2.4641032090    1.3595791174   -0.3494424647
C        1.5432633189    0.4007342982   -0.7511628589
C        1.7875277425   -2.3404898732    0.5763701372
C        2.1236785017    2.2682986731    0.6511807259
C        1.3228314152   -3.6176222767   -1.2136926912
C        0.8356822240   -2.5612609668   -0.4937184315
C        0.2975869409    0.3649067426   -0.1137181249
C        0.0164718826    1.3570243997    0.8720467072
C        2.7806281187   -3.2620101325    0.4007785505
C       -0.4657813573   -1.9123995073   -0.8005690969
C       -2.0704842173   -0.0854252042   -0.2923926489
C       -2.1913571108    0.4195549333    1.1483135706
N        0.9259131271    2.2712826661    1.2444214985
N       -0.7053753787   -0.5706789433   -0.4712071339
O       -1.3866784194   -2.5618310757   -1.2979353571
O        2.5189818037   -4.0481932311   -0.6929944749
O       -1.2228422096    1.4338658539    1.4782488346
Br       4.3163010843   -3.4394944549    1.5188686578
H        3.4437472325    1.4154724211   -0.8080895224
H        1.7940350499   -0.2928238173   -1.5464426053
H        1.7327994009   -1.6007308507    1.3684747024
H        2.8544289083    3.0086554171    0.9557178414
H        0.8325527157   -4.0586551017   -2.0750241637
H       -2.8171814459   -0.8676660886   -0.4616696640
H       -2.2719916350    0.7282950613   -0.9966222674
H       -3.1970111430    0.8231054302    1.3008195508
H       -2.0664354504   -0.4236809323    1.8353359420
27   

C        2.4178635024    1.6201613554   -0.2759092735
C        1.5957091752    0.5608860957   -0.6369641843
C        1.8398091540   -2.0311723089    1.0672401956
C        1.9366607250    2.6071445093    0.5822492568
C        1.8319544537   -3.2759625070   -0.8033629504
C        1.0768531548   -2.3677677302   -0.1165150068
C        0.3025020512    0.5074063496   -0.1028306877
C       -0.1220246509    1.5791602571    0.7382125234
C        2.9972232176   -2.7530513544    0.9931171816
C       -0.2577527185   -1.8825736840   -0.5610110395
C       -2.0114788386   -0.1283520320   -0.4042287482
C       -2.2806961522    0.5207470655    0.9559746347
N        0.6937682345    2.5909949301    1.0733344873
N       -0.6080014096   -0.5310336452   -0.4270953305
O       -1.1085647162   -2.6669856154   -0.9798521902
O        3.0138857167   -3.5179146234   -0.1463981864
O       -1.4101700351    1.6339206432    1.2349620064
Br       4.4002380519   -2.7047525250    2.2849825423
H        3.4287922483    1.6938609735   -0.6576873444
H        1.9591130883   -0.1933761267   -1.3257397659
H        1.5596122556   -1.3432944413    1.8583879555
H        2.5915555455    3.4261948749    0.8563582483
H        1.5406995885   -3.7409715342   -1.7389839447
H       -2.6925252404   -0.9746511640   -0.5380284856
H       -2.2064649221    0.5873368081   -1.2094675228
H       -3.3194633123    0.8633848661    0.9875466272
H       -2.1566061162   -0.2303427338    1.7428064646
27   

C        2.4516105921    1.2269469897    0.3477019730
C        1.5720377271    0.2347688919   -0.0651345077
C        0.9878008656   -2.0970263019    2.0393593510
C        1.9573605470    2.3801776744    0.9542271410
C        1.4097770378   -3.4085873868    0.2666026006
C        0.5313179284   -2.4659790496    0.7164593656
C        0.2031572184    0.4185028875    0.1641533930
C       -0.2197467308    1.6452057085    0.7585087326
C        2.1062319417   -2.8436385840    2.2794224540
C       -0.6277457944   -1.9230713458   -0.0486464584
C       -2.0653436819    0.0354713231   -0.5756972865
C       -2.5120987392    0.9020490573    0.6042981019
N        0.6517297057    2.5882523633    1.1492710901
N       -0.7678289095   -0.5386674844   -0.2287236256
O       -1.5308834224   -2.6584041054   -0.4430041028
O        2.3829164981   -3.6514508579    1.2049268921
O       -1.5595749658    1.9278163718    0.9444145572
Br       3.1486159325   -2.7706621451    3.8755759600
H        3.5192033513    1.1199217179    0.1996152644
H        1.9531035718   -0.6496263728   -0.5620886257
H        0.5419230431   -1.3699403264    2.7101099682
H        2.6570370838    3.1442239834    1.2729031418
H        1.3527847880   -3.8948910503   -0.7010802396
H       -2.8255549431   -0.7272321346   -0.7708901638
H       -1.9714562180    0.6474436897   -1.4786493631
H       -3.4696428729    1.3713995688    0.3589338907
H       -2.6717753253    0.2629741074    1.4788191374
27   

C        2.4934898445    1.2183871550   -0.1360596940
C        1.5545664183    0.2843756487   -0.5542894749
C        1.2652668292   -2.4187200642    1.3542942941
C        2.1119898781    2.2426197511    0.7288444566
C        1.5458415046   -3.2071001642   -0.7267317654
C        0.6610800771   -2.5118927374    0.0432518535
C        0.2459976280    0.3919944588   -0.0703570694
C       -0.0677837989    1.4926068980    0.7824298606
C        2.4654921382   -3.0652541686    1.2695202912
C       -0.6336252736   -1.9108334344   -0.3984702757
C       -2.1095424081    0.0860023231   -0.4850260094
C       -2.3600591999    0.7331938831    0.8791520557
N        0.8589573202    2.3816940564    1.1722592777
N       -0.7792433353   -0.5156278103   -0.4399066598
O       -1.6230648122   -2.6072845595   -0.6105624752
O        2.6567769982   -3.5544356276    0.0017614628
O       -1.3566069977    1.7044684893    1.2349958052
Br       3.7112258331   -3.2545511502    2.7019857802
H        3.5201288048    1.1659026442   -0.4771924999
H        1.8422355262   -0.4947354400   -1.2494973221
H        0.8573703288   -1.9293282817    2.2325196489
H        2.8571546408    2.9620233070    1.0482932533
H        1.3991080407   -3.4454007993   -1.7743896282
H       -2.8978377429   -0.6437599265   -0.6942120458
H       -2.1476293824    0.8441005017   -1.2740413121
H       -3.3399556395    1.2200085607    0.8676944291
H       -2.3874840817   -0.0469634140    1.6468887361
27   

C        2.3742124237    1.0106746140    0.2920804437
C        1.5191976830   -0.0444867615    0.5825434523
C        1.8559348647   -3.4650504479    0.5832674107
C        1.8987093626    2.1103273749   -0.4195929144
C        1.3593169734   -2.8847797976   -1.5242594599
C        0.8600787442   -2.8361563108   -0.2572634838
C        0.1981278175    0.0214555605    0.1260966205
C       -0.2157831929    1.2020745463   -0.5625221562
C        2.8900181500   -3.8100839005   -0.2402613377
C       -0.5006478667   -2.3680094688    0.1542464646
C       -2.1201893585   -0.5190828255    0.5126477791
C       -2.4467225493    0.2890163623   -0.7446125479
N        0.6311567092    2.2078145417   -0.8310962068
N       -0.7493811240   -1.0047874517    0.3746107352
O       -1.4402620728   -3.1560445216    0.2176174318
O        2.6099445676   -3.4522756878   -1.5341795870
O       -1.5249905430    1.3729224987   -0.9719475861
Br       4.4942528213   -4.6776892949    0.3200345760
H        3.4069771816    0.9948963129    0.6181084426
H        1.8800193688   -0.8806626782    1.1682503393
H        1.7953671450   -3.6463631782    1.6511255203
H        2.5790326661    2.9248524818   -0.6399401968
H        0.8394744069   -2.5295722743   -2.4071176329
H       -2.1995453479    0.1175939087    1.3998881622
H       -2.8472732019   -1.3290416533    0.6272263954
H       -2.4335758531   -0.3771045656   -1.6133241477
H       -3.4591913002    0.6940969775   -0.6538668253
27   

C        2.3640862810    1.0448699708    0.2493011465
C        1.5163347855   -0.0099384936    0.5608951455
C        1.8408212177   -3.5912256294    0.5773946073
C        1.8794757808    2.1298609834   -0.4786092794
C        1.3704276319   -2.7278819763   -1.4382702664
C        0.8732864465   -2.8208125590   -0.1714222059
C        0.1919333116    0.0420693113    0.1093605600
C       -0.2307595268    1.2075533708   -0.5984975023
C        2.8581256057   -3.8750801144   -0.2894333824
C       -0.4637155455   -2.3542933068    0.3054128386
C       -2.1280734769   -0.5183270784    0.4965351449
C       -2.4493902545    0.2683926790   -0.7760661837
N        0.6099639373    2.2127511321   -0.8877781758
N       -0.7480137285   -0.9838417594    0.3872985407
O       -1.3606336980   -3.1623726954    0.5332638816
O        2.5947345497   -3.3436158141   -1.5263468623
O       -1.5415671114    1.3625872011   -1.0077880306
Br       4.4204061509   -4.8803352719    0.1454359140
H        3.3981573504    1.0402323328    0.5716751024
H        1.8854290486   -0.8363675620    1.1574274190
H        1.7704086999   -3.9031921141    1.6141122221
H        2.5543702910    2.9444610860   -0.7148470730
H        0.8674280190   -2.2400516689   -2.2658802196
H       -2.2331947212    0.1269821499    1.3747736840
H       -2.8429881080   -1.3400510797    0.6038732771
H       -2.4145676113   -0.4089090027   -1.6354581878
H       -3.4690110102    0.6592399568   -0.7047903589
27   

C        2.3411771852    1.1573237330    0.2379919621
C        1.5410757844    0.0701515027    0.5641011235
C        1.9141766073   -3.7086747770    0.5202844778
C        1.8076113821    2.2122529766   -0.5002014503
C        1.5425922255   -2.5238128568   -1.3466547309
C        0.9999725157   -2.7914229945   -0.1217265165
C        0.2141483042    0.0608029557    0.1165521368
C       -0.2613840082    1.1984980629   -0.6021550234
C        2.9465543579   -3.8990896709   -0.3540976026
C       -0.3251580783   -2.3569610362    0.4030609338
C       -2.0785914175   -0.5993990738    0.5181976962
C       -2.4360107318    0.1595031048   -0.7621254541
N        0.5345119165    2.2351589896   -0.9063940999
N       -0.6784767592   -1.0006713719    0.4135103959
O       -1.1619095309   -3.1917576508    0.7413747121
O        2.7439513405   -3.1709530068   -1.4988497333
O       -1.5791742188    1.2913070564   -1.0073345952
Br       4.4527913074   -5.0284202410   -0.0436071675
H        3.3753631644    1.2014514602    0.5571545917
H        1.9469046050   -0.7350755092    1.1671012181
H        1.7973557072   -4.1734970144    1.4937753610
H        2.4457034871    3.0527612559   -0.7477162020
H        1.0865963077   -1.8920008355   -2.1009769144
H       -2.2152779685    0.0476595226    1.3907739451
H       -2.7529881461   -1.4542532295    0.6297302140
H       -2.3710882158   -0.5242551689   -1.6146479413
H       -3.4724001368    0.5041234081   -0.6939608127
27   

C        2.3234814053    1.2304483593    0.2731012799
C        1.5415233929    0.1364713452    0.6206531760
C        1.8347789539   -3.8714452896    0.4977178924
C        1.7807265467    2.2482135950   -0.5100934894
C        1.6851612884   -2.3900706727   -1.1768883568
C        1.0395456683   -2.7889220987   -0.0376400848
C        0.2248537638    0.0837923545    0.1484199712
C       -0.2636637717    1.1860236802   -0.6145204371
C        2.9018899683   -4.0229635559   -0.3413632905
C       -0.2665460633   -2.3354370951    0.5099079826
C       -2.0557939426   -0.6123986019    0.5438522835
C       -2.4143380686    0.0956356301   -0.7655356910
N        0.5151966799    2.2289785175   -0.9399738340
N       -0.6470592612   -0.9872820888    0.4644858266
O       -1.0741326823   -3.1634821626    0.9297254437
O        2.8352102236   -3.1152170487   -1.3670608658
O       -1.5765746513    1.2348803372   -1.0427734552
Br       4.2847414832   -5.3213619494   -0.1349792043
H        3.3501809202    1.3090754010    0.6094526019
H        1.9504935309   -0.6430781881    1.2553283549
H        1.6167686170   -4.4633656048    1.3808563744
H        2.4046464835    3.0941389466   -0.7747240189
H        1.3358342581   -1.6142393208   -1.8493729197
H       -2.2147428275    0.0602895862    1.3929703325
H       -2.7127701820   -1.4778085509    0.6765780077
H       -2.3278458976   -0.6158885470   -1.5931170348
H       -3.4578515545    0.4219662337   -0.7194882085
27   

C        2.3248868546    1.2860463457    0.2623141124
C        1.5567046835    0.1861848358    0.6227850620
C        1.7187393425   -4.0226434304    0.3245401769
C        1.7737428823    2.2806070604   -0.5453164513
C        1.8085125264   -2.3033146436   -1.1065353859
C        1.0554591213   -2.7994676703   -0.0735383783
C        0.2471855547    0.1047678662    0.1369596447
C       -0.2534735484    1.1859151038   -0.6471441907
C        2.8147199947   -4.1567629819   -0.4786978049
C       -0.2168325830   -2.3180848574    0.5247686698
C       -2.0201931134   -0.6121418814    0.5472844304
C       -2.3923905800    0.0675178267   -0.7739282398
N        0.5124118404    2.2341740455   -0.9857249138
N       -0.6085442813   -0.9736461551    0.4641605078
O       -0.9953176843   -3.1315269204    1.0235448904
O        2.8931542838   -3.1067485299   -1.3560066579
O       -1.5654246119    1.2076847284   -1.0809690623
Br       4.0578762767   -5.6026138714   -0.4083804509
H        3.3469282362    1.3876433513    0.6066723618
H        1.9682774265   -0.5783887806    1.2742453069
H        1.3974464659   -4.7103609226    1.1005203106
H        2.3869435813    3.1308873902   -0.8208411297
H        1.5810021812   -1.4070045749   -1.6726259447
H       -2.1806713334    0.0746207718    1.3847892550
H       -2.6666988839   -1.4822327299    0.6998332858
H       -2.3056424224   -0.6599618913   -1.5875281610
H       -3.4382618780    0.3862329976   -0.7277786607
27   

C        2.2772114284    1.3652825023    0.3159032402
C        1.5272175899    0.2537263663    0.6803107782
C        1.5718502471   -4.1351308686    0.1215576494
C        1.7249282992    2.3253664102   -0.5326451424
C        1.9465048221   -2.2315432402   -0.9905979282
C        1.0577642164   -2.8005211823   -0.1117688077
C        0.2380858954    0.1259067554    0.1539208524
C       -0.2702857891    1.1769020877   -0.6645207382
C        2.7133343635   -4.2589936571   -0.6160972040
C       -0.1921616792   -2.3076855345    0.5259105968
C       -2.0133748844   -0.6239670757    0.5537590454
C       -2.3897112466    0.0175309518   -0.7859817029
N        0.4781412306    2.2363563277   -1.0069501361
N       -0.5967486022   -0.9661917792    0.4800042904
O       -0.9485438457   -3.1192320802    1.0621617301
O        2.9636367083   -3.0995326551   -1.3004093329
O       -1.5736579277    1.1576698019   -1.1244773776
Br       3.8064811990   -5.8209183914   -0.6964956776
H        3.2855169095    1.5028074216    0.6872281635
H        1.9349391814   -0.4876092822    1.3606377476
H        1.1278976569   -4.8964598555    0.7556293156
H        2.3241162998    3.1842370728   -0.8123342610
H        1.8658647565   -1.2408126530   -1.4214178409
H       -2.1847910651    0.0812939666    1.3735851848
H       -2.6477812785   -1.4989444467    0.7277600551
H       -2.2946746823   -0.7307698574   -1.5795203576
H       -3.4389103102    0.3264965129   -0.7496841533
27   

C        2.2431352595    1.4644290231    0.3598312056
C        1.5129639522    0.3467836923    0.7467105029
C        1.4453633831   -4.2049261386   -0.0256015996
C        1.6985903670    2.3636366035   -0.5583380595
C        2.1135462997   -2.2182404607   -0.7984640626
C        1.0918125494   -2.7991277640   -0.0861505554
C        0.2560221765    0.1496800241    0.1688508183
C       -0.2532370313    1.1463260725   -0.7137691490
C        2.6255307697   -4.3545378584   -0.6929037342
C       -0.1399917539   -2.2859837211    0.5757855766
C       -1.9806064392   -0.6278544626    0.5584718741
C       -2.3486880117   -0.0607963838   -0.8175221767
N        0.4757732320    2.2122357648   -1.0773020894
N       -0.5580474536   -0.9489686847    0.5161801581
O       -0.8783715200   -3.0868508506    1.1523681256
O        3.0528971950   -3.1464777997   -1.1726365146
O       -1.5414882001    1.0693385176   -1.2096779816
Br       3.5537487325   -6.0046746110   -0.9309330596
H        3.2295108588    1.6536974952    0.7656327167
H        1.9103531111   -0.3493835121    1.4788868309
H        0.8767815164   -4.9931285269    0.4585879140
H        2.2824744867    3.2270591362   -0.8558338533
H        2.1909714548   -1.1772906693   -1.0815770073
H       -2.1725091827    0.1151331066    1.3395681998
H       -2.6031267863   -1.5029584987    0.7706779189
H       -2.2370653175   -0.8487252752   -1.5693930316
H       -3.4016424597    0.2372973061   -0.8082509519
