27   

C       -1.6593572473   -0.4133501319    1.7487730161
C       -0.5849618139   -0.6254047654    0.8657735064
C       -2.4634205677   -1.4907438284    2.1526061045
C       -0.3101805438   -1.9135667939    0.3831902758
C       -2.1789818954   -2.7713268145    1.6663692377
C       -1.1217131477   -2.9713632919    0.7980964172
C       -2.8842627066   -4.0204127123    1.9707010607
C       -2.2416826896   -7.1384680975    2.7179635747
C       -2.7253462448   -8.2178324353    3.4071552909
C       -2.8697131865   -6.4889223063    1.5006027502
C       -3.6649704999   -8.2393293566    4.5758054572
N       -2.3453969232   -5.1457416282    1.3860052039
O       -3.8742202417   -4.0699513391    2.6867356887
O       -1.3416789581   -4.9652534080   -1.0488729023
O        0.2263899491   -5.3419468100    0.8257113803
S       -1.0255541680   -4.7216326361    0.3663224993
Br      -2.7333491336   -8.8260566318    6.2247992121
H       -1.8673882047    0.5840896668    2.1204892573
H        0.0351880369    0.2084491984    0.5562009797
H       -3.2947678125   -1.3431764071    2.8353011501
H        0.5176686790   -2.0869626302   -0.2983521056
H       -1.1585281885   -7.0635563844    2.6962058838
H       -1.9765718743   -8.9959633516    3.5194261881
H       -2.6334801130   -7.0694620541    0.6014669588
H       -3.9607046824   -6.4684999312    1.6041194265
H       -4.5022908543   -8.9113620916    4.3657392855
H       -4.0698161191   -7.2346394754    4.7352505011
27   

C       -1.6973658169   -0.5310370759    1.9749681383
C       -0.6662562421   -0.6359346089    1.0237169329
C       -2.4514524684   -1.6620392883    2.3260337827
C       -0.3844585642   -1.8702798510    0.4203772759
C       -2.1616021286   -2.8883834283    1.7184110499
C       -1.1457673663   -2.9824785221    0.7846118662
C       -2.8211850880   -4.1790064797    1.9454915662
C       -2.0467048257   -7.2578584616    2.4638357716
C       -2.6513860754   -8.1200049121    3.3244266904
C       -2.7363604555   -6.6033213883    1.2859784176
C       -3.6231053601   -7.7431052720    4.4029102130
N       -2.3048340947   -5.2263029794    1.2147027967
O       -3.7597061975   -4.3262073125    2.7159193825
O       -1.3822581301   -4.8109575718   -1.2233832824
O        0.2511840260   -5.3148348301    0.5624832965
S       -1.0269958310   -4.6849521789    0.1979529082
Br      -2.8999375349   -8.2023742940    6.1903402677
H       -1.9108916497    0.4253523108    2.4397061833
H       -0.0851600798    0.2390600488    0.7545127601
H       -3.2494985658   -1.5965519554    3.0592925134
H        0.4098897946   -1.9614131375   -0.3149554025
H       -0.9939167826   -7.4459789848    2.2768742503
H       -2.0383034873   -8.9730158504    3.5982689605
H       -2.4660459208   -7.1261198610    0.3613577473
H       -3.8253531081   -6.6655138401    1.3938989693
H       -4.5722924018   -8.2633955804    4.2448350916
H       -3.8177879294   -6.6659981902    4.3620157342
27   

C       -1.7310395846   -0.5682628463    2.0081699729
C       -0.7074722975   -0.6644461619    1.0479155880
C       -2.4760046060   -1.7044702819    2.3615413573
C       -0.4241128961   -1.8952768280    0.4379644125
C       -2.1842872314   -2.9271757093    1.7474735228
C       -1.1761136444   -3.0129768528    0.8048619739
C       -2.8337308369   -4.2221202882    1.9773986209
C       -1.9698437133   -7.3268292010    2.4280738735
C       -2.5490292786   -8.0933561616    3.3796831040
C       -2.7368325766   -6.6469510953    1.3158672500
C       -3.5952139010   -7.6188412301    4.3421323613
N       -2.3078015755   -5.2683011398    1.2518241834
O       -3.7741931506   -4.3719095321    2.7446651196
O       -1.4354327129   -4.8394027273   -1.2017459645
O        0.2374207172   -5.3322954937    0.5501207043
S       -1.0535681333   -4.7134965298    0.2127063773
Br      -3.0243825204   -7.9531825298    6.2101286869
H       -1.9456399912    0.3852639273    2.4782917212
H       -0.1333669640    0.2146156607    0.7769894818
H       -3.2678809312   -1.6458919298    3.1020698720
H        0.3645147951   -1.9795520008   -0.3042813546
H       -0.9407594608   -7.5648473677    2.1772914312
H       -1.9319062736   -8.9031213893    3.7563165071
H       -2.5279787566   -7.1457635635    0.3625312315
H       -3.8167204303   -6.7130036889    1.4916885946
H       -4.5384460577   -8.1380330941    4.1489694179
H       -3.7666882928   -6.5459898827    4.2083575595
27   

C       -1.7179394592   -0.5735015787    2.0086304085
C       -0.6833885273   -0.6719349175    1.0604858885
C       -2.4717165735   -1.7073345556    2.3502195621
C       -0.3977514144   -1.9027164859    0.4512057907
C       -2.1771274884   -2.9298924681    1.7371698934
C       -1.1584211769   -3.0183311624    0.8066751479
C       -2.8331948682   -4.2225975318    1.9585860507
C       -1.9139682684   -7.3823695393    2.3238916754
C       -2.4306474994   -8.0452002873    3.3765805128
C       -2.7408742559   -6.6487247590    1.2927283878
C       -3.5128365205   -7.5291997523    4.2711740701
N       -2.2874322014   -5.2758346596    1.2577869332
O       -3.7976502807   -4.3610837900    2.6972647542
O       -1.4254346385   -4.8447984156   -1.1982584506
O        0.2569365694   -5.3359786433    0.5444328146
S       -1.0368819812   -4.7190960384    0.2144268780
Br      -2.9942506790   -7.7389059037    6.1718163583
H       -1.9340638033    0.3796922828    2.4787655582
H       -0.1024838158    0.2053896790    0.7986156664
H       -3.2717980300   -1.6473370548    3.0818012306
H        0.3994128226   -1.9885409352   -0.2816402306
H       -0.9200746979   -7.6754020252    2.0002001138
H       -1.7945917066   -8.8118808561    3.8078686232
H       -2.6037017298   -7.1109741960    0.3084617464
H       -3.8084114440   -6.7048429388    1.5345668851
H       -4.4405805617   -8.0774987982    4.0836170294
H       -3.6984369983   -6.4705701162    4.0692539556
27   

C       -1.9746291783   -0.7051140572    2.1278067211
C       -0.7381257420   -0.8435089452    1.4714452107
C       -2.8418557707   -1.8033823617    2.2363727396
C       -0.3632889473   -2.0791615535    0.9232897442
C       -2.4575899804   -3.0302424100    1.6851660125
C       -1.2402549076   -3.1586615494    1.0433240794
C       -3.2052701021   -4.2911373757    1.7031462493
C       -2.1571289470   -7.5717021588    2.0648653072
C       -2.3978157972   -7.7584959459    3.3742464612
C       -3.0106001597   -6.7364544473    1.1307532560
C       -3.0757600150   -6.7780394567    4.2713249015
N       -2.5450307112   -5.3655513892    1.1467615425
O       -4.3344214289   -4.3878933076    2.1644677808
O       -1.0815191231   -4.9399803132   -1.0059818906
O        0.1087649874   -5.5288178902    1.0749217035
S       -1.0476460495   -4.8570649122    0.4623836197
Br      -1.7881037274   -5.3828867073    4.8456851110
H       -2.2588339963    0.2507488793    2.5540362710
H       -0.0693378891    0.0059364088    1.3898616256
H       -3.7970155605   -1.7140945195    2.7446196716
H        0.5904731098   -2.1971957536    0.4172890551
H       -1.4571038072   -8.2515026053    1.5906155646
H       -1.9065369287   -8.5941240345    3.8614214447
H       -2.9492969743   -7.1353675071    0.1120193226
H       -4.0618774302   -6.7927164143    1.4350932959
H       -3.4542018364   -7.2967029876    5.1572933161
H       -3.9304548094   -6.3180356441    3.7676711432
27   

C       -1.9824678433   -0.6791606950    2.1361272388
C       -0.7310952361   -0.8400349622    1.5139915503
C       -2.8600415259   -1.7688968842    2.2459720153
C       -0.3521152115   -2.0894910398    1.0007673119
C       -2.4708767167   -3.0097113301    1.7306223978
C       -1.2398323403   -3.1602180969    1.1209446141
C       -3.2258443024   -4.2655691515    1.7606043696
C       -2.2348967566   -7.6262595508    2.0767802459
C       -2.3187894407   -7.6971203570    3.4142937828
C       -3.0630308951   -6.7144554534    1.1926525079
C       -2.9906768944   -6.6989378142    4.2918111794
N       -2.5512649898   -5.3612149001    1.2656003522
O       -4.3697838332   -4.3422662506    2.1879999877
O       -1.0728449163   -4.9894166221   -0.8851133844
O        0.1036713482   -5.5323882674    1.2162447244
S       -1.0473130271   -4.8725921677    0.5812030969
Br      -1.6900343374   -5.3144786716    4.8615848299
H       -2.2699976859    0.2872618569    2.5355077646
H       -0.0540013649    0.0027670041    1.4321168130
H       -3.8264703359   -1.6625972593    2.7290525076
H        0.6131908958   -2.2247482487    0.5217382891
H       -1.6186759979   -8.3648578782    1.5751861119
H       -1.7878661527   -8.5031145382    3.9097269856
H       -3.0242238090   -7.0673161799    0.1559312706
H       -4.1131110368   -6.7503223463    1.5040086565
H       -3.3790764639   -7.2040532706    5.1812729683
H       -3.8400557313   -6.2353753313    3.7835417160
27   

C       -2.0084016094   -0.7522403183    1.9731368790
C       -0.7347615827   -0.9230990538    1.4008557341
C       -2.8864897161   -1.8421428334    2.0758695557
C       -0.3341375255   -2.1826676137    0.9303563509
C       -2.4753337762   -3.0929804856    1.6037291356
C       -1.2228888199   -3.2534410976    1.0424915195
C       -3.2266320661   -4.3506070918    1.6371186047
C       -2.2692075878   -7.7437422477    1.9987581456
C       -2.2338723811   -7.6932647892    3.3386759876
C       -3.0522741555   -6.8047697322    1.1019614710
C       -2.9553844133   -6.7084033778    4.1876168472
N       -2.5283446824   -5.4574985229    1.2033325318
O       -4.3863557507   -4.4205532194    2.0209221844
O       -0.9916363234   -5.1302379726   -0.9125935736
O        0.1280297790   -5.6158854522    1.2335448954
S       -1.0075548276   -4.9776743000    0.5506182397
Br      -1.7076631817   -5.2869998863    4.7833593455
H       -2.3127703347    0.2219461429    2.3398538794
H       -0.0572285515   -0.0801200577    1.3247582182
H       -3.8699911143   -1.7283588679    2.5213556145
H        0.6484546220   -2.3255523855    0.4903087409
H       -1.6943326091   -8.5239574911    1.5113722360
H       -1.6521360274   -8.4505666645    3.8535216069
H       -2.9848140864   -7.1459361288    0.0627556479
H       -4.1124218641   -6.8316034925    1.3781248192
H       -3.3521938839   -7.2184329152    5.0705249616
H       -3.8051244657   -6.2716970437    3.6569745309
27   

C       -1.9603478437   -0.3548633987    1.7552223731
C       -0.6739531832   -0.5417616257    1.2175268277
C       -2.8398475960   -1.4421896650    1.8718320328
C       -0.2619949668   -1.8148168190    0.7955624627
C       -2.4172885619   -2.7064714814    1.4481314892
C       -1.1524463309   -2.8827398233    0.9206264913
C       -3.1681542711   -3.9634501095    1.5039519634
C       -2.2552179313   -7.3651411131    1.9663081283
C       -2.1016192111   -7.1818079637    3.2863494365
C       -2.9901478444   -6.4281046657    1.0259263298
C       -2.8697100749   -6.2190266955    4.1176706388
N       -2.4592181303   -5.0829384026    1.1228552182
O       -4.3360385712   -4.0234192453    1.8639546085
O       -0.8784382852   -4.8199309155   -0.9690137659
O        0.1958233830   -5.2362247667    1.2146860581
S       -0.9253890600   -4.6213094695    0.4880142282
Br      -1.6850161480   -4.7433940941    4.7094613277
H       -2.2735464438    0.6297962466    2.0846299779
H        0.0046389180    0.2993258424    1.1307572734
H       -3.8331962683   -1.3160331862    2.2913912709
H        0.7304728317   -1.9700338666    0.3827116723
H       -1.7149744688   -8.1882328875    1.5109226952
H       -1.4639039934   -7.8817729567    3.8158893736
H       -2.8856230878   -6.7863683179   -0.0044581295
H       -4.0606358149   -6.4411753474    1.2600275576
H       -3.2525760715   -6.7357702526    5.0028227219
H       -3.7318142229   -5.8222173622    3.5752940379
27   

C       -2.0010883050   -0.5283486732    1.8594656171
C       -0.7087223092   -0.7163697794    1.3367091402
C       -2.8867399409   -1.6126197015    1.9547472769
C       -0.2972485025   -1.9873627443    0.9078057328
C       -2.4642556584   -2.8747671290    1.5247137758
C       -1.1941763822   -3.0522390685    1.0109336243
C       -3.2209394769   -4.1286398208    1.5605907043
C       -2.4339083145   -7.5649492623    1.9927746249
C       -2.1354359815   -7.3151813326    3.2784786854
C       -3.0652661811   -6.5799642881    1.0241176187
C       -2.8704591038   -6.3674081115    4.1556929217
N       -2.5117303733   -5.2496345758    1.1837671154
O       -4.3937531232   -4.1850812870    1.9048620273
O       -0.9173908441   -4.9729225956   -0.8950478074
O        0.1417039543   -5.4153285623    1.2908531995
S       -0.9720359615   -4.7878822424    0.5635284787
Br      -1.6636802574   -4.9081915053    4.7432089393
H       -2.3141758822    0.4546275432    2.1939906880
H       -0.0252319263    0.1223053860    1.2668264882
H       -3.8847762663   -1.4858966943    2.3628988767
H        0.6997449035   -2.1433235499    0.5063552327
H       -1.9792993033   -8.4429472026    1.5466075220
H       -1.4768967858   -8.0173556031    3.7788246886
H       -2.8963740893   -6.9207343338   -0.0037334050
H       -4.1502476828   -6.5670676295    1.1776923489
H       -3.2265200316   -6.9022267929    5.0412935820
H       -3.7478801717   -5.9573550665    3.6482029238
27   

C       -2.0837700130   -0.4478348510    1.9526625778
C       -0.7878279071   -0.6395959025    1.4402466405
C       -2.9868801049   -1.5205494028    2.0026357571
C       -0.3904374722   -1.9026207247    0.9757402857
C       -2.5781268162   -2.7748356116    1.5378017957
C       -1.3048253277   -2.9560344908    1.0332484902
C       -3.3531171477   -4.0177400004    1.5285286701
C       -2.7331514256   -7.4575460379    1.9556633202
C       -2.2824635722   -7.1638540464    3.1889700416
C       -3.2287078952   -6.4540594694    0.9251220536
C       -2.9451420919   -6.2134980658    4.1228458576
N       -2.6556940013   -5.1377966419    1.1279430249
O       -4.5288662439   -4.0677771386    1.8637183137
O       -1.0418430812   -4.8212297705   -0.9293463411
O       -0.0062364346   -5.3480514783    1.2487888414
S       -1.1044812379   -4.6804434884    0.5338174167
Br      -1.6767366080   -4.7926594175    4.6722769340
H       -2.3860344791    0.5287578723    2.3147170254
H       -0.0906185734    0.1899370372    1.4061784935
H       -3.9877192939   -1.3914039360    2.4031080843
H        0.6092908083   -2.0614419154    0.5823690280
H       -2.3939795732   -8.4001940337    1.5398553689
H       -1.6231217007   -7.8886093426    3.6549225848
H       -2.9747855579   -6.8092434349   -0.0801561731
H       -4.3224261512   -6.4030422017    0.9713865950
H       -3.2668061761   -6.7562034825    5.0167829334
H       -3.8377008296   -5.7750734213    3.6675731979
27   

C       -2.2743736093   -0.6511540468    1.8374739449
C       -0.9922007098   -0.8231417941    1.2849877482
C       -3.1777894455   -1.7242160275    1.8668040979
C       -0.6092339234   -2.0663806131    0.7587536123
C       -2.7830291578   -2.9588271506    1.3412488795
C       -1.5238129744   -3.1205543864    0.7959989981
C       -3.5582315893   -4.2008778228    1.3070401965
C       -3.1309207005   -7.5813606233    1.7597626086
C       -2.5016044253   -7.2935892970    2.9190447598
C       -3.4490403754   -6.6155622683    0.6299927328
C       -2.9889088981   -6.3056740845    3.9238525774
N       -2.8701238500   -5.3057103712    0.8526513025
O       -4.7238911716   -4.2646336132    1.6737957904
O       -1.3318312727   -4.9076401111   -1.2465234228
O       -0.2193148985   -5.5208081793    0.8697538412
S       -1.3410056521   -4.8242092316    0.2222936911
Br      -1.5835808720   -4.9671569405    4.3245580700
H       -2.5653962694    0.3099671355    2.2470419939
H       -0.2942881934    0.0063006229    1.2679061829
H       -4.1675433477   -1.6109456973    2.2984333515
H        0.3800559501   -2.2098641923    0.3344153165
H       -2.9872048566   -8.5980444880    1.4103573193
H       -1.8944268615   -8.0870200492    3.3420257407
H       -3.0831802719   -7.0263558939   -0.3180051686
H       -4.5369626367   -6.5265564620    0.5319698453
H       -3.2401980295   -6.8315229189    4.8498697243
H       -3.8984211880   -5.8112644691    3.5705642987
27   

C       -2.3235398892   -0.7263393702    1.8624183575
C       -1.0395004543   -0.8697647603    1.3061207724
C       -3.2213234180   -1.8043893972    1.8480001081
C       -0.6488585317   -2.0892377638    0.7321073941
C       -2.8191779694   -3.0153357058    1.2752497024
C       -1.5576188736   -3.1490075798    0.7261394876
C       -3.5869389043   -4.2599807504    1.1948665816
C       -3.2988511479   -7.4975833474    1.7644863918
C       -2.5669806135   -7.2211404201    2.8736703033
C       -3.4332301542   -6.6682588729    0.5019962997
C       -2.9247399161   -6.2130769203    3.9160057398
N       -2.8942286138   -5.3371057703    0.6866856810
O       -4.7473441577   -4.3510013475    1.5724255783
O       -1.3393301173   -4.8560783514   -1.3823261668
O       -0.2457631934   -5.5493622618    0.7188464117
S       -1.3619002461   -4.8287734507    0.0883867642
Br      -1.4409267600   -4.9288541501    4.1847682187
H       -2.6201841640    0.2163230626    2.3091283250
H       -0.3458395961   -0.0367881337    1.3234554949
H       -4.2121782386   -1.7134541295    2.2823129217
H        0.3421377440   -2.2107436933    0.3049437270
H       -3.3509334882   -8.5560878715    1.5340329110
H       -2.0290887607   -8.0659774568    3.2908722042
H       -2.9255633496   -7.1713936922   -0.3288892893
H       -4.4924313655   -6.5946916361    0.2303047639
H       -3.1160433058   -6.7263852935    4.8632074977
H       -3.8400090728   -5.6826935794    3.6362583720
27   

C       -2.1639142547   -0.5936557478    2.1245516516
C       -0.8588973123   -0.7055535134    1.6115593139
C       -3.0413698759   -1.6868196121    2.0620520740
C       -0.4261208021   -1.9091721697    1.0349170295
C       -2.5984808239   -2.8813120186    1.4847582478
C       -1.3147189973   -2.9844372230    0.9820610284
C       -3.3442651713   -4.1353117332    1.3500713969
C       -3.1001779352   -7.1964923238    2.0838930992
C       -2.3578907102   -6.8922710436    3.1893321627
C       -3.0793036541   -6.5504790748    0.7129626751
C       -2.7244262811   -5.9153196324    4.2602966305
N       -2.6348350781   -5.1752967485    0.7899085949
O       -4.5053424155   -4.2602701250    1.7159559565
O       -0.9150306125   -4.6463497966   -1.1352195585
O       -0.0008216883   -5.3824010830    1.0356684507
S       -1.0617574371   -4.6494820708    0.3285370414
Br      -1.2831272692   -4.5782241158    4.4946345507
H       -2.4929843189    0.3368160795    2.5739754421
H       -0.1816662934    0.1393438417    1.6644695530
H       -4.0487920759   -1.6194338600    2.4609319094
H        0.5811105901   -2.0067530047    0.6408225032
H       -3.2917636899   -8.2587770287    1.9792107618
H       -1.8316868724   -7.7407588991    3.6140295668
H       -2.4243337361   -7.1234207095    0.0466699293
H       -4.0858398998   -6.5790552001    0.2806689530
H       -2.8678767842   -6.4466651370    5.2060715604
H       -3.6650594516   -5.4148445027    4.0088385274
