57

C     -0.77345    1.19452    1.13855
C     -0.82251    0.03028    0.33350
C     -6.22158   -1.25403   -1.54116
C     -1.67246    1.37588    2.18038
C     -3.92031    0.92070    5.80858
C     -4.30754    2.57016    4.09498
C     -5.13233   -1.65206   -0.75685
C     -1.75932   -0.97225    0.55726
C     -7.52570   -1.55319   -1.15361
C     -4.17288    1.87321    6.78794
C     -4.55997    3.54012    5.06973
C     -6.66501   -2.67371    0.82133
C     -2.64309    0.38202    2.41674
C     -3.99203    1.24635    4.43797
C     -3.69558    0.25469    3.38379
C     -5.35508   -2.36243    0.42779
C     -2.66626   -0.79395    1.61613
C     -4.49416    3.19350    6.42796
C     -7.75029   -2.26348    0.03621
C     -4.31077   -0.97294    3.14582
C     -5.44503   -1.59964    3.85894
C     -5.03008    7.63954    8.48220
C     -4.09236    6.69016    9.19643
C     -5.28456    6.14690    8.44364
C     -9.32839   -3.17121    1.58782
C     -4.19522   -2.76286    1.32114
C     -5.07224    5.41062    7.15195
N     -3.66598   -1.62249    2.08699
O     -5.69347   -2.79327    3.83525
O     -6.25352   -0.76947    4.56583
O     -9.05871   -2.50735    0.35317
O     -4.71768    4.05403    7.46117
H     -0.01902    1.94948    0.93487
H     -0.10669   -0.08589   -0.47593
H     -6.05219   -0.70415   -2.46349
H     -1.63393    2.26381    2.80547
H     -3.66085   -0.09267    6.10226
H     -4.37112    2.84345    3.04509
H     -4.12113   -1.40012   -1.06302
H     -1.77111   -1.86124   -0.06556
H     -8.38021   -1.24732   -1.75029
H     -4.11944    1.62062    7.84274
H     -4.80808    4.54813    4.75830
H     -6.81591   -3.21425    1.74711
H     -5.69909    8.25231    9.07847
H     -4.67350    8.12018    7.57495
H     -3.10922    6.52419    8.76495
H     -4.11866    6.65913   10.28125
H     -6.11306    5.77636    9.04187
H    -10.41520   -3.22630    1.66336
H     -8.92834   -2.60950    2.43989
H     -8.91173   -4.18568    1.59440
H     -4.49584   -3.53418    2.02636
H     -3.36611   -3.15190    0.72762
H     -4.26607    5.87976    6.57151
H     -5.98608    5.41883    6.54279
H     -5.92975    0.15068    4.51794
