47

C     -3.21364    1.62907    2.69388
C     -2.79531    2.49734    3.69600
C     -0.67808    2.01208   -0.45083
C     -2.31020    0.71326    2.13670
C     -1.58609    2.39996   -1.43369
C      0.83039    1.60112    4.03676
C      1.16589    2.47420    5.00530
C     -1.46289    2.45970    4.13383
C     -0.53576    1.55540    3.56107
C     -0.32118    0.66839   -0.30880
C     -0.85153   -0.31745   -1.14831
C     -0.98135    0.66309    2.55526
C     -1.74952    0.07640   -2.15673
C     -2.11295    1.42640   -2.27800
C     -1.05051    3.39293    5.19600
C      0.79650   -2.06640   -0.19140
C     -0.47701   -1.78453   -1.03414
C      0.64598    0.25387    0.77549
C      1.59125   -0.81582    0.16843
C     -1.65622   -2.61006   -0.47688
C      2.75808   -1.16203    1.11976
N     -0.09650   -0.28116    1.94209
O     -1.76395    4.19751    5.75436
O      0.28821    3.33747    5.58713
O     -2.23288   -0.88716   -2.99678
O      2.19409   -0.32224   -1.02208
F      3.60830   -2.04814    0.57710
F      3.47388   -0.04394    1.42626
F      2.34381   -1.68876    2.30921
Cl    -3.24889    1.88391   -3.54832
H     -4.24279    1.64881    2.34710
H     -3.47511    3.20749    4.15528
H     -0.26289    2.75705    0.22229
H     -2.63229    0.02298    1.36393
H     -1.88465    3.43675   -1.54850
H      1.60461    0.95994    3.63264
H      2.16217    2.58393    5.41943
H      0.51119   -2.56073    0.73864
H      1.45705   -2.74440   -0.73717
H     -0.29006   -2.12949   -2.05511
H      1.24942    1.13235    1.05752
H     -1.87597   -2.30417    0.55054
H     -1.40016   -3.67536   -0.46842
H     -2.55210   -2.48244   -1.08815
H      0.55524   -0.64253    2.63123
H     -2.80876   -0.46649   -3.66017
H      2.47426    0.59799   -0.88232
