47

C      7.75775   -2.47363    3.08008
C      7.18041   -6.08518    3.70783
C      5.96309   -6.29501    3.04668
C      7.74394   -4.81337    3.69887
C      5.32337   -5.24869    2.38909
C      5.36737   -1.54871    1.42831
C      4.26039   -1.08395    0.65125
C      7.10476   -3.74912    3.03662
C      5.87042   -3.94814    2.36255
C      5.16063   -2.89070    1.66055
C      3.44120   -2.16095    0.45163
C     -0.25487    1.16998   -0.39068
C      0.14896    0.48309   -1.72277
C     -1.70344   -0.70705    0.56316
C      0.84379   -0.68490    0.91490
C     -0.80197   -1.86501   -1.39645
C     -0.43600    0.14958    0.74539
C      0.48119   -1.00127   -1.50642
C     -3.16389   -1.92635   -0.90804
C      2.15382   -2.34788   -0.29307
N      8.31507   -1.45083    3.13621
N     -1.93381   -1.15257   -0.80909
N      1.41319   -1.10259   -0.37579
O      3.96996   -3.26474    1.05989
H      7.68036   -6.90104    4.22127
H      5.50998   -7.28286    3.04466
H      8.68633   -4.62244    4.20310
H      4.38202   -5.42569    1.88201
H      6.20464   -0.95960    1.77002
H      4.08167   -0.08299    0.28427
H      0.52161    1.88220   -0.09048
H     -1.17900    1.74131   -0.52140
H     -0.65697    0.56585   -2.45624
H      1.03480    0.97111   -2.14014
H     -1.66061   -1.56194    1.26822
H     -2.57430   -0.10631    0.85215
H      1.59151   -0.09540    1.45882
H      0.62048   -1.56178    1.54635
H     -1.10266   -2.16102   -2.40806
H     -0.57176   -2.80244   -0.85130
H     -0.57534    0.69067    1.68884
H      1.03145   -1.36356   -2.38141
H     -3.36603   -2.17207   -1.95568
H     -4.00448   -1.33454   -0.53080
H     -3.12947   -2.87289   -0.33431
H      2.37778   -2.69028   -1.31151
H      1.59123   -3.16571    0.19535
