33

C      3.19775   -1.56843    2.06242
C      2.05087   -1.10075    2.68203
C      3.18126   -1.90573    0.69700
C     -3.59121    1.13543    5.45693
C     -4.05885    1.56995    6.67893
C      0.84653   -0.95437    1.95559
C      2.00324   -1.76560   -0.02591
C      0.82359   -1.28918    0.59298
C     -2.23850    0.74829    5.38970
C     -3.15749    1.59478    7.76144
C     -1.66126    0.27111    4.11736
C     -0.31934   -0.45569    2.67797
C     -3.57949    2.05433    9.13167
C      2.96229   -2.54164   -2.08733
N     -1.41927    0.78904    6.44651
N     -1.87906    1.21085    7.62631
N     -0.35856   -0.12558    3.94689
N     -2.40061    0.19722    3.02630
O     -1.51267   -0.28737    2.05928
O     -0.30809   -1.16613   -0.14798
O      1.83453   -2.05403   -1.36189
H      4.11723   -1.67716    2.62929
H      2.04713   -0.83646    3.73361
H      4.08406   -2.27122    0.22002
H     -4.21998    1.08601    4.57373
H     -5.09052    1.88579    6.81232
H     -4.39610    1.43428    9.51789
H     -2.73350    1.99260    9.81793
H     -3.93896    3.08899    9.10353
H      2.61576   -2.70222   -3.10855
H      3.31819   -3.48940   -1.66725
H      3.77564   -1.80690   -2.08699
H     -0.08967   -1.45226   -1.05443
