23

C     -2.43481    2.29144   -1.30125
C     -3.30948    1.35560   -0.67392
C     -1.18146    1.77275   -1.51579
C     -2.70891    0.13771   -0.42001
C     -4.50042   -3.34550    1.44075
C     -6.19079   -4.38515    2.36912
C     -3.33358   -1.00991    0.20435
N     -5.51904   -2.50972    1.46217
N     -6.59821   -3.18607    2.05956
N     -2.64742   -2.09387    0.38164
N     -4.86433   -4.55825    2.00455
N     -4.01121   -5.65852    2.13333
N     -3.22570   -3.18128    0.96877
S     -1.04536    0.13640   -0.95763
S     -7.09013   -5.68987    3.13937
H     -2.72037    3.30043   -1.58019
H     -4.34350    1.56228   -0.41549
H     -0.32819    2.25998   -1.97108
H     -4.37636   -0.90941    0.50434
H     -4.39537   -6.45359    1.62341
H     -3.91208   -5.90400    3.11803
H     -2.60901   -3.97809    1.06262
H     -8.21701   -4.95715    3.23279
