25

C      4.78504   -1.62350   -2.59269
C      3.84926   -0.93822   -3.37193
C      4.80984   -1.38809   -1.21869
C      0.40179   -0.05863    0.64320
C      1.44001   -1.25943    2.44335
C      2.97682   -0.04417   -2.74011
C     -0.70626   -0.88965    0.79588
C      1.50353   -0.23692    1.49079
C      3.89111   -0.47753   -0.68082
C      0.27625   -2.03237    2.49100
C      3.89127   -0.22007    0.80175
C      2.75072    0.61707    1.37343
N      2.98820    0.18672   -1.42330
N     -0.77579   -1.87286    1.71022
O      4.75325   -0.70282    1.52209
Br     0.18133   -3.45528    3.79171
H      5.47799   -2.32643   -3.04731
H      3.79050   -1.08865   -4.44607
H      5.50960   -1.88646   -0.55604
H      0.41652    0.70492   -0.12742
H      2.26713   -1.45259    3.11835
H      2.23828    0.50678   -3.32009
H     -1.58108   -0.77175    0.15936
H      2.55372    1.47317    0.72695
H      3.07094    0.95980    2.35974
