34

C     -0.66005   -2.33046    0.27959
C      0.05764   -1.37090   -0.47323
C      3.24118   -5.24074    0.34759
C     -0.04052   -3.50306    0.65423
C      1.37191   -1.59107   -0.83917
C      1.93335   -4.97933    0.69036
C      3.97002   -4.29379   -0.40202
C      1.31041   -3.76325    0.29528
C      2.04188   -2.79117   -0.46861
C      3.41193   -3.08654   -0.81624
C      4.46629    3.21309   -4.43077
C      3.39674    2.60191   -3.72608
C      4.71188    0.84173   -3.30088
C      4.30321   -2.21761   -1.58454
C      4.33879    4.56154   -5.07777
N      5.62199    2.55791   -4.51594
N      3.50312    1.41844   -3.15625
N      5.76842    1.35842   -3.95256
N      3.98424   -1.06212   -2.05917
N      4.93898   -0.39456   -2.74710
O      2.22118    3.25681   -3.63400
H     -1.69326   -2.14128    0.55916
H     -0.43274   -0.44638   -0.76814
H      3.71712   -6.16973    0.64919
H     -0.57845   -4.25054    1.23285
H      1.90572   -0.84718   -1.41449
H      1.35882   -5.69955    1.26810
H      5.00218   -4.51521   -0.66437
H      5.31342   -2.62049   -1.74595
H      4.08527    5.33060   -4.34026
H      5.28556    4.82047   -5.55522
H      3.54338    4.56417   -5.83077
H      5.87204   -0.78175   -2.89185
H      1.62198    2.68194   -3.11971
