43

C     -5.23294    4.10414   -5.53806
C     -4.00445    4.21640   -6.22278
C     -5.29771    3.45525   -4.30576
C     -2.81842    3.70351   -5.69462
C     -4.11645    2.92558   -3.77819
C     -2.89499    3.06436   -4.45233
C     -3.85846    2.17884   -2.53587
C     -0.70991    0.36799   -1.86400
C      2.22769   -0.99393   -0.44699
C      0.88154   -1.33311   -1.11005
C     -0.43466   -0.06750    0.57743
C      0.68619   -0.57456    1.50188
C      2.07157   -0.24226    0.90597
C      0.46486   -0.05024    2.92438
C      2.28812    1.26531    0.71410
C     -1.72710    1.44728   -1.47330
N     -1.85187    2.51860   -3.68647
N     -2.50380    1.86617   -2.60638
N     -0.10784   -0.28979   -0.83720
O     -4.60151    1.87844   -1.60033
O     -0.44447    0.15300   -3.05375
O      3.02601   -0.74241    1.86217
H     -6.13116    4.52511   -5.98081
H     -3.97823    4.72166   -7.18488
H     -6.23262    3.34827   -3.76295
H     -1.87504    3.80605   -6.22390
H      2.76672   -1.92735   -0.25737
H      2.83457   -0.39417   -1.13402
H      0.97710   -1.42365   -2.19076
H      0.49496   -2.28602   -0.72983
H     -1.37537   -0.56964    0.84055
H     -0.57801    1.00171    0.75348
H      0.63602   -1.66908    1.54850
H      0.46886    1.04395    2.96116
H      1.24524   -0.41833    3.59261
H     -0.50458   -0.38893    3.30633
H      2.17005    1.80722    1.65559
H      1.59931    1.68160   -0.02700
H      3.30401    1.44937    0.34453
H     -1.19100    2.30039   -1.03083
H     -2.44825    1.08616   -0.73634
H     -1.25184    1.83589   -4.15515
H      3.91545   -0.54273    1.52812
