39

C      4.36976   -3.66639    6.40093
C      5.01483    1.84185   -3.40165
C      3.32063   -3.83017    5.51979
C      4.22767    1.36782   -2.35332
C      5.16203   -2.49456    6.36495
C      1.74155   -1.87950    2.72805
C      4.64501    1.52789   -4.71397
C      2.82460    0.34442   -3.99413
C      3.01827   -2.82426    4.56348
C      3.09348    0.59375   -2.63945
C      3.80601   -1.62915    4.50739
C      1.95137   -2.91355    3.61489
C      4.87572   -1.51854    5.44107
C      2.59145   -0.74818    2.77273
C      1.61208    1.00945   -0.49247
C      2.80296   -0.72704   -0.36893
C      2.19275    0.04919   -1.57026
C      2.35467    0.40838    1.82211
N      3.56808    0.79100   -5.01552
N      3.59705   -0.61785    3.62394
N      1.85226   -0.03144    0.53322
O      1.12063   -3.99225    3.54825
F      5.63328   -0.40475    5.40954
H      4.59547   -4.43849    7.13048
H      5.89976    2.44317   -3.21218
H      2.73570   -4.74592    5.57979
H      4.49525    1.59783   -1.32455
H      5.99060   -2.35145    7.05161
H      0.94226   -1.92895    1.99710
H      5.23807    1.88248   -5.55576
H      1.95431   -0.25328   -4.26678
H      2.24393    1.90152   -0.35897
H      0.56772    1.32109   -0.59967
H      2.71975   -1.81840   -0.37587
H      3.85164   -0.44819   -0.18255
H      1.38885   -0.53433   -2.02533
H      1.60730    1.07953    2.26667
H      3.29653    0.97830    1.74637
H      1.36628   -4.64528    4.22156
