32

C      6.38023   -2.79700    5.00236
C      8.13880    4.22882    2.11345
C      8.11798    4.82412    3.37830
C      6.05716   -7.23753    4.20947
C      8.05727    2.84286    2.01163
C      8.02172    4.02587    4.51956
C      6.21381   -5.83651    4.34349
C      6.55024   -7.72152    3.01526
C      7.95518    2.03573    3.16040
C      7.93917    2.62680    4.44607
C      6.83133   -5.25100    3.24130
C      7.87669    0.57829    2.95946
C      7.43011   -1.46122    3.24044
C      7.18416   -3.89281    2.94936
C      6.99779   -2.77015    3.71163
C      7.85646    1.83267    5.72979
N      5.87522   -2.85654    6.05107
N      7.30517   -0.31411    3.85127
N      8.33723    0.00726    1.85944
O      8.03479   -1.35970    2.03809
S      7.21269   -6.47272    2.03797
H      8.21198    4.83780    1.21662
H      8.17699    5.90508    3.47721
H      5.59885   -7.86999    4.96212
H      8.06369    2.36559    1.03677
H      8.01396    4.49695    5.49945
H      5.88846   -5.27638    5.21063
H      6.55596   -8.74622    2.66530
H      7.66828   -3.72272    1.99022
H      6.88426    1.34604    5.83905
H      8.60372    1.03515    5.76342
H      8.01674    2.49046    6.58808
