32

C      7.17927   -3.90795   -1.97964
C      6.12046   -3.34492   -1.27168
C      2.80286   -1.61327    1.92649
C      1.74681   -0.96151   -0.14959
C      1.75595   -1.05764    2.64948
C      0.69745   -0.40405    0.55937
C      7.20989   -3.87943   -3.38195
C      5.07733   -2.69939   -3.37497
C      2.82322   -1.57872    0.52198
C      5.06054   -2.73562   -1.97152
C      0.66947   -0.43442    1.98332
C      6.15023   -3.27142   -4.04655
C     -1.48291    0.75012    1.97792
C     -0.38606    0.07189    4.13898
N      3.93133   -2.17160   -0.09967
N      3.93025   -2.12962   -1.36734
N     -0.37643    0.12246    2.68498
F      6.16347   -3.23465   -5.40631
H      7.99834   -4.37868   -1.44222
H      6.09251   -3.36458   -0.18820
H      3.63285   -2.08946    2.44154
H      1.75460   -0.93088   -1.23416
H      1.78247   -1.10784    3.73121
H     -0.11227    0.06128    0.00978
H      8.02781   -4.31373   -3.94836
H      4.26290   -2.23101   -3.91823
H     -2.20412    1.12895    2.70239
H     -2.00426    0.03871    1.32404
H     -1.14558    1.59630    1.36536
H     -1.28705    0.55982    4.51132
H      0.48065    0.59152    4.56820
H     -0.38420   -0.96183    4.50940
