16

C      1.70626   -1.24750   -0.17514
C      0.76197   -0.48827    0.52616
C      2.78502   -1.81355    0.50310
C      0.89349   -0.29880    1.90365
C      2.94720   -1.62093    1.88445
C      1.98089   -0.86668    2.55920
C      4.10829   -2.19059    2.60148
N      4.99333   -1.58113    3.29256
O      4.79078   -0.19426    3.29654
F      2.08011   -0.70796    3.89636
Cl     4.32913   -3.92945    2.47435
H      1.60063   -1.39859   -1.24531
H     -0.08306   -0.04889    0.00350
H      3.51744   -2.40930   -0.03367
H      0.16860    0.27150    2.47622
H      5.50044    0.11410    3.88418
