47

C      6.30557   -2.97133   -5.02754
C      8.41736   -0.52855   -3.19804
C      7.62434   -0.25464   -2.07612
C      7.95345   -1.42805   -4.15266
C      6.38769   -0.87234   -1.91393
C      3.77969   -3.27021   -3.34442
C      2.60309   -3.45861   -2.55241
C      6.70505   -2.05792   -3.99714
C      5.89241   -1.78926   -2.86452
C      4.59205   -2.40577   -2.64463
C      2.76218   -2.70810   -1.41859
C      0.80621    1.53502    0.56361
C      1.11963    1.11966   -0.89856
C     -1.34314    0.17990    0.85107
C      0.95244   -0.87101    1.31270
C     -0.58740   -0.74106   -1.29206
C      0.09928    0.40995    1.33895
C      0.91024   -0.38901   -1.09899
C     -2.88058   -0.05141   -0.98191
C      1.90508   -2.48548   -0.21739
N      6.00924   -3.70639   -5.88289
N     -1.49326    0.17561   -0.60215
N      1.58670   -1.08151    0.00713
O      3.96669   -2.06516   -1.46161
H      9.38227   -0.04684   -3.32523
H      7.97318    0.44705   -1.32314
H      8.54807   -1.65800   -5.03146
H      5.78137   -0.65002   -1.04341
H      3.98659   -3.71335   -4.30636
H      1.74383   -4.06966   -2.79591
H      1.73752    1.77735    1.08728
H      0.18638    2.43709    0.58071
H      0.48416    1.66806   -1.59816
H      2.16205    1.35140   -1.13599
H     -1.72429   -0.75854    1.30293
H     -1.97522    0.99034    1.23450
H      1.74183   -0.80540    2.07429
H      0.31300   -1.72620    1.59510
H     -0.81941   -0.67258   -2.36079
H     -0.76441   -1.79656   -1.00269
H      0.01217    0.70443    2.39160
H      1.42774   -0.69473   -2.01240
H     -2.99005    0.04220   -2.06723
H     -3.52103    0.70183   -0.51084
H     -3.25526   -1.05026   -0.68420
H      1.01206   -3.12822   -0.32861
H      2.43544   -2.84531    0.67416
