30   

C       -1.4882551625    0.9594881692    0.9007470906
C       -1.2353533821   -0.2573223458    1.5368702119
C       -0.5072761299    1.5333120372    0.0902931912
C        5.5524594506    1.2280414179   -1.2583027275
C       -0.0016993567   -0.8969106170    1.3688503563
C        0.7260476284    0.8946169952   -0.0785068414
C        5.1993820040    0.0136746170   -1.8383038384
C        4.8888968089    1.6551864889   -0.1131296232
C        1.0067420072   -0.3261700446    0.5726806518
C        3.4642495892   -0.3164043582   -0.1651246874
C        4.1826055762   -0.7773363758   -1.2967143056
C        3.8568104229    0.8965681140    0.4427203632
C        2.2913810884   -1.0575555883    0.3842140039
C        3.8244377118   -3.1599978744   -1.1540909436
C        3.5561201314   -3.1169593195    0.3525495016
N        2.3360090376   -2.3427939315    0.6676676215
N        3.9378277265   -2.0113083821   -1.9006486135
O        3.9816396997   -4.2195192377   -1.7403845820
F        3.2539975375    1.3450615062    1.5685628011
H       -2.4448592501    1.4530325230    1.0306550318
H       -1.9969929827   -0.7110839586    2.1607856245
H       -0.7035989513    2.4723781579   -0.4145283255
H        6.3482926452    1.8282325498   -1.6871150566
H        0.1606239301   -1.8439954653    1.8726271721
H        1.4572053157    1.3548268940   -0.7330372831
H        5.7385755700   -0.3267733276   -2.7148581468
H        5.1688952856    2.5887213704    0.3604483703
H        3.4324787393   -4.1443220478    0.7061835081
H        4.4247711683   -2.6935445034    0.8646419825
H        4.2579241413   -2.1947003979   -2.8428441420
30   

C       -1.4530967393    1.0093642991    0.9308089531
C       -1.1326012130   -0.1112722313    1.7009697117
C       -0.5670022507    1.4495192744   -0.0550935813
C        5.5525835349    1.2423958577   -1.1665757748
C        0.0729570879   -0.7897681393    1.4875012855
C        0.6379686503    0.7710665016   -0.2682123219
C        5.2410491990    0.0329429581   -1.7791317133
C        4.8290322737    1.6473840430   -0.0504899704
C        0.9777853201   -0.3570938044    0.5053286860
C        3.4370081711   -0.3438618499   -0.1901524682
C        4.2091721019   -0.7773456861   -1.2977049528
C        3.7813165035    0.8698074193    0.4465808516
C        2.2481215831   -1.1034158293    0.2910800637
C        3.8329932975   -3.1661501704   -1.2459535095
C        3.4930814080   -3.1717816535    0.2458698902
N        2.2681708255   -2.3960400190    0.5362219251
N        3.9969624664   -1.9950796336   -1.9461338208
O        4.0081596009   -4.2067984246   -1.8602186515
F        3.1210743252    1.3011945465    1.5465913388
H       -2.3877160007    1.5335185187    1.0959831173
H       -1.8190149330   -0.4585364297    2.4648155040
H       -0.8142824065    2.3158592411   -0.6580143852
H        6.3602746215    1.8576940576   -1.5492986174
H        0.3015075109   -1.6594575485    2.0946629057
H        1.3076036682    1.1228462756   -1.0452953362
H        5.8226990879   -0.2867635383   -2.6361268033
H        5.0731393044    2.5789124576    0.4463063280
H        3.3440380084   -4.2095018702    0.5569471303
H        4.3412987512   -2.7764475668    0.8118057968
H        4.3611155657   -2.1512538383   -2.8771929741
30   

C       -1.4155196684    1.0423757637    0.9391154884
C       -1.0025115406    0.0390451188    1.8201158562
C       -0.6470405820    1.3333857299   -0.1911181564
C        5.5644164083    1.2514163634   -1.0669323891
C        0.1766908086   -0.6726767159    1.5705439685
C        0.5314386056    0.6209006898   -0.4390097259
C        5.2875837364    0.0531011420   -1.7163326329
C        4.7896713810    1.6301722729    0.0232968462
C        0.9550072189   -0.3946449240    0.4381513116
C        3.4220056168   -0.3697718904   -0.2112912901
C        4.2415024156   -0.7732264740   -1.2966240066
C        3.7273089181    0.8364837312    0.4600943343
C        2.2192823203   -1.1462883211    0.2003763477
C        3.8543836250   -3.1641211376   -1.3390775284
C        3.4515613889   -3.2195229854    0.1353711374
N        2.2219398062   -2.4447043975    0.4067566210
N        4.0591203373   -1.9713868975   -1.9896560803
O        4.0476444638   -4.1839866760   -1.9820416869
F        3.0188747239    1.2461974417    1.5381226551
H       -2.3292332750    1.5931270027    1.1322889207
H       -1.5954716730   -0.1895562668    2.6983591424
H       -0.9636779367    2.1114889668   -0.8763161797
H        6.3831097640    1.8796063674   -1.4023717730
H        0.4876852898   -1.4490185570    2.2616842837
H        1.1203519477    0.8564560658   -1.3188321506
H        5.9062710647   -0.2439664855   -2.5553306272
H        5.0041031627    2.5542516175    0.5469403852
H        3.2829025737   -4.2664618072    0.4024792985
H        4.2787581438   -2.8522678413    0.7492794683
H        4.4629218124   -2.0989607794   -2.9086643400
30   

C       -1.3835597692    1.0636006752    0.9262080664
C       -0.8552903125    0.2184231979    1.9063250814
C       -0.7477437798    1.1714396699   -0.3137314368
C        5.5856826921    1.2550914687   -0.9507306902
C        0.3055413916   -0.5188820414    1.6451010390
C        0.4123972000    0.4327962954   -0.5717727361
C        5.3280025426    0.0762892381   -1.6416846859
C        4.7797684035    1.6025739899    0.1268489508
C        0.9461565219   -0.4278208822    0.4029578978
C        3.4219240389   -0.3918800853   -0.2007514707
C        4.2710740989   -0.7617601092   -1.2758797160
C        3.7062752450    0.7968260821    0.5114099707
C        2.2093964419   -1.1829946519    0.1494472314
C        3.8748539875   -3.1498065562   -1.4173941992
C        3.4288882264   -3.2595747014    0.0411825513
N        2.1974992905   -2.4867523700    0.3092776126
N        4.1061794391   -1.9347294018   -2.0153479577
O        4.0797265123   -4.1453026449   -2.0940324559
F        2.9703969797    1.1790905041    1.5807143585
H       -2.2825975689    1.6349953516    1.1280634451
H       -1.3435556724    0.1338842904    2.8704754525
H       -1.1519826878    1.8286551774   -1.0752279047
H        6.4125960616    1.8930108425   -1.2450859587
H        0.7120363765   -1.1704068685    2.4112588430
H        0.9041492075    0.5270878334   -1.5338978194
H        5.9694124619   -0.1954342691   -2.4721525867
H        4.9778302119    2.5120638584    0.6815238934
H        3.2457166236   -4.3148599303    0.2619249996
H        4.2406730990   -2.9232498930    0.6922286032
H        4.5359720305   -2.0305232300   -2.9264107425
30   

C       -1.3982255388    1.0771802205    0.8875094979
C       -0.7336567317    0.4631525634    1.9526614604
C       -0.8971722021    0.9457076109   -0.4102352182
C        5.6272896734    1.2259086752   -0.8255242887
C        0.4282221942   -0.2815938622    1.7183203077
C        0.2645868435    0.2000080652   -0.6391268646
C        5.3430425268    0.0854607852   -1.5676150021
C        4.8322013985    1.5400640819    0.2696647063
C        0.9367403781   -0.4283160278    0.4227237435
C        3.4308166150   -0.4093865093   -0.1413538925
C        4.2700982094   -0.7463069657   -1.2358392398
C        3.7430439608    0.7404056742    0.6218460604
C        2.2006859716   -1.1926485338    0.1667090963
C        3.8286708040   -3.1172089968   -1.4879248895
C        3.3758215108   -3.2861638225   -0.0372324519
N        2.1587087405   -2.5014973409    0.2593246252
N        4.0798747565   -1.8797300072   -2.0291832990
O        4.0162690501   -4.0834849158   -2.2103800509
F        3.0230973309    1.0917130899    1.7110626608
H       -2.2985876776    1.6537725853    1.0675177941
H       -1.1172445624    0.5633192745    2.9615972965
H       -1.4076071975    1.4215296295   -1.2398747584
H        6.4658690991    1.8598335125   -1.0943661444
H        0.9395373215   -0.7543243938    2.5498487627
H        0.6502724260    0.1055611705   -1.6484485663
H        5.9756773844   -0.1609062650   -2.4125810787
H        5.0508896213    2.4193603668    0.8638516159
H        3.1702146340   -4.3465826014    0.1334905261
H        4.1912360614   -2.9963307400    0.6313572426
H        4.5073850584   -1.9408022077   -2.9443061455
30   

C       -1.2747925365    0.7198181340    0.6763740159
C       -0.4806592050    0.4408170332    1.7910208509
C       -0.8365251428    0.3441114534   -0.5949901806
C        5.8629827675    1.3331511049   -0.7003338912
C        0.7486887373   -0.2099599020    1.6321441983
C        0.3934288401   -0.3053364331   -0.7464534626
C        5.5996410312    0.2437153815   -1.5209485960
C        5.0834025505    1.5340051198    0.4311083157
C        1.2052906993   -0.5911517019    0.3652192855
C        3.7296417080   -0.4215961943   -0.1028574088
C        4.5611159176   -0.6458926677   -1.2332834355
C        4.0273573280    0.6746785753    0.7418616418
C        2.5272318271   -1.2719643713    0.1447278193
C        4.2259288051   -3.0091278422   -1.6407389774
C        3.7896577526   -3.2941597286   -0.2029988570
N        2.5380240838   -2.5846435859    0.1353194639
N        4.3998099518   -1.7268515663   -2.1026934048
O        4.4564737165   -3.9151581063   -2.4261163673
F        3.3331588115    0.9191310489    1.8733660576
H       -2.2283048104    1.2214054125    0.7978348484
H       -0.8184709374    0.7236060379    2.7815104555
H       -1.4490717500    0.5533077458   -1.4646560438
H        6.6747270481    2.0136346964   -0.9356218406
H        1.3423132827   -0.4373188979    2.5104360687
H        0.7252895678   -0.5951427175   -1.7376968253
H        6.2225382708    0.0826309007   -2.3932659334
H        5.2890135848    2.3707568370    1.0880924117
H        3.6319527147   -4.3715385149   -0.1016399529
H        4.5924254197   -3.0100543941    0.4831087546
H        4.8167775010   -1.7059028876   -3.0244508259
30   

C       -1.3004631784    0.7048274468    0.5585854283
C       -0.4283901899    0.7286436330    1.6478482125
C       -0.9280819598    0.0320865216   -0.6048625352
C        5.9237228308    1.3004836247   -0.5830334156
C        0.8148485308    0.0883425282    1.5708807315
C        0.3154742743   -0.6038773369   -0.6753634750
C        5.5618764815    0.3042031401   -1.4801780582
C        5.2435946859    1.4048309480    0.6230072401
C        1.2153879045   -0.5823349093    0.4074991836
C        3.7654880521   -0.4308156642    0.0001048458
C        4.5145869044   -0.5765135511   -1.1985827671
C        4.1820312019    0.5504947631    0.9305113521
C        2.5418808964   -1.2651962186    0.2249849833
C        4.1357964661   -2.8996758160   -1.7352283634
C        3.7634340658   -3.2729298622   -0.2977737337
N        2.5311387627   -2.5748549968    0.1255267982
N        4.2737707822   -1.5893380713   -2.1293740935
O        4.3290771020   -3.7558714307   -2.5840311523
F        3.6143254499    0.6771150851    2.1459014368
H       -2.2646499566    1.1969799332    0.6193145988
H       -0.7198315649    1.2335985183    2.5618201176
H       -1.6016295334   -0.0006055033   -1.4537475414
H        6.7409898938    1.9760258338   -0.8134207441
H        1.4287144132    0.0845354680    2.4599888773
H        0.5928489288   -1.1249816297   -1.5857400191
H        6.1172826278    0.2050907848   -2.4056944883
H        5.5368151426    2.1578685843    1.3448138157
H        3.6000426574   -4.3533809850   -0.2553538452
H        4.5959644981   -3.0345392229    0.3701339112
H        4.6394118228   -1.5119404483   -3.0697035560
30   

C       -1.3568483907    0.6354719703    0.5134207260
C       -0.3859936829    0.9445523323    1.4657613716
C       -1.0589090486   -0.2760663331   -0.4974468652
C        5.9472084361    1.3145724074   -0.4314865789
C        0.8805870571    0.3491092431    1.4055235977
C        0.2069024376   -0.8672142563   -0.5530955615
C        5.5150819650    0.4413913762   -1.4232725897
C        5.3458719174    1.2698314412    0.8215361733
C        1.2103537855   -0.5631871582    0.3913634498
C        3.7753018618   -0.4187882330    0.0482782042
C        4.4635899064   -0.4477983057   -1.1898608470
C        4.2831134856    0.4000638272    1.0797593248
C        2.5378759208   -1.2458880739    0.2399356253
C        4.0649113762   -2.7197898599   -1.8800590327
C        3.7509833547   -3.2023396694   -0.4574213206
N        2.5281744082   -2.5476029639    0.0560058770
N        4.1740714583   -1.3812634624   -2.1868863712
O        4.2304985048   -3.5117060068   -2.7946173519
F        3.8105498506    0.3288453819    2.3420613620
H       -2.3374723421    1.0954709789    0.5619919181
H       -0.6155160353    1.6448933723    2.2608517845
H       -1.8072801192   -0.5297834152   -1.2397053875
H        6.7672643708    1.9986688940   -0.6235816336
H        1.5718503596    0.6145568704    2.1877960789
H        0.4179427812   -1.5770821060   -1.3463318527
H        6.0230410911    0.4385305970   -2.3807854721
H        5.7081624740    1.9088368958    1.6180005861
H        3.5970713677   -4.2846047094   -0.4872009047
H        4.6055036733   -3.0049348180    0.1961027736
H        4.5020707372   -1.2335281267   -3.1326245180
30   

C       -1.3918995172    0.6011161356    0.5513832448
C       -0.3291420067    1.1123134575    1.2947061707
C       -1.1761650489   -0.4861893257   -0.2919770754
C        5.9684852334    1.3156242026   -0.2968485177
C        0.9455428988    0.5403426082    1.1948234301
C        0.0977267393   -1.0545059933   -0.3879594384
C        5.5350912003    0.5101430220   -1.3452600727
C        5.3546877901    1.2024658354    0.9470646536
C        1.1951930337   -0.5529891977    0.3490428314
C        3.7675022691   -0.4052246380    0.0524995867
C        4.4692631734   -0.3763005472   -1.1754626839
C        4.2765709922    0.3345456535    1.1397151267
C        2.5225424563   -1.2307163947    0.1990942365
C        4.0688199869   -2.6116366627   -1.9658306697
C        3.7536990208   -3.1534954483   -0.5633866270
N        2.5254870894   -2.5271751231   -0.0261475193
N        4.1839369842   -1.2612630095   -2.2162717584
O        4.2356425685   -3.3655926994   -2.9117601382
F        3.7797102746    0.1851995249    2.3886882413
H       -2.3782662122    1.0445399998    0.6291277611
H       -0.4908064420    1.9580920573    1.9533760774
H       -1.9949207413   -0.8946175772   -0.8735487889
H        6.8006650013    1.9972951155   -0.4390095516
H        1.7197270662    0.9940395931    1.7918150009
H        0.2338037559   -1.9023868380   -1.0513882320
H        6.0549537203    0.5546440653   -2.2953372412
H        5.7192222728    1.7841226644    1.7853602545
H        3.6061982191   -4.2345115976   -0.6374865689
H        4.6055569395   -2.9788523238    0.1000427646
H        4.5180399327   -1.0733649152   -3.1526828772
30   

C       -1.4000934569    0.6066169178    0.6076418744
C       -0.2709807336    1.2502436160    1.1109775220
C       -1.2560956063   -0.6130550733   -0.0490388478
C        5.9831772740    1.3007966640   -0.1769348121
C        0.9979020472    0.6771238559    0.9595581623
C        0.0122122453   -1.1828842482   -0.1974172863
C        5.5799660993    0.5310325210   -1.2640231794
C        5.3176588011    1.1655704738    1.0380720868
C        1.1767213221   -0.5509647835    0.3009932529
C        3.7504551548   -0.3999427001    0.0392127777
C        4.4974917489   -0.3456459157   -1.1605053452
C        4.2210841446    0.3089364028    1.1635896852
C        2.5016625607   -1.2251632483    0.1332735185
C        4.1045800959   -2.5513017940   -2.0297074617
C        3.7530777087   -3.1299770949   -0.6510701550
N        2.5136744917   -2.5162537221   -0.1245272368
N        4.2393969538   -1.1957553129   -2.2363397312
O        4.2916055985   -3.2792930272   -2.9920826211
F        3.6497956341    0.1523607681    2.3808639557
H       -2.3820531474    1.0512281837    0.7245321113
H       -0.3759241256    2.2019309054    1.6194918337
H       -2.1267131765   -1.1236260974   -0.4449511189
H        6.8293730683    1.9739596500   -0.2677304652
H        1.8274765989    1.2438035620    1.3538654367
H        0.0838348142   -2.1352099821   -0.7123688639
H        6.1365364938    0.5949649829   -2.1919571911
H        5.6528557169    1.7230890275    1.9045843381
H        3.6055973815   -4.2081539926   -0.7587425302
H        4.5890080247   -2.9763947765    0.0373344860
H        4.6022460554   -0.9824850238   -3.1564744916
30   

C       -1.3883160743    0.6317846874    0.6636337515
C       -0.2219151736    1.3525403112    0.9145280616
C       -1.2968341915   -0.6810949353    0.2072507649
C        5.9872701456    1.2649211769   -0.0652486968
C        1.0321794345    0.7632588111    0.7118254896
C       -0.0431675198   -1.2673790027    0.0066136363
C        5.6290376914    0.5154983857   -1.1819438675
C        5.2561023772    1.1279852092    1.1109189219
C        1.1572832009   -0.5583686788    0.2527167738
C        3.7284524726   -0.4144806634    0.0166424526
C        4.5320611844   -0.3488379656   -1.1461719886
C        4.1436193832    0.2853017248    1.1690489215
C        2.4754256581   -1.2336682763    0.0526186938
C        4.1432493427   -2.5240947182   -2.0926424317
C        3.7328866386   -3.1327477271   -0.7448601755
N        2.4844028577   -2.5169273453   -0.2431173308
N        4.3108078946   -1.1669837118   -2.2542726997
O        4.3571194291   -3.2287523525   -3.0667260601
F        3.4863210856    0.1482891058    2.3446956134
H       -2.3589681658    1.0889006487    0.8200429937
H       -0.2866949436    2.3765955926    1.2643826881
H       -2.1971367643   -1.2513765981    0.0081993580
H        6.8453974245    1.9279224889   -0.1041397140
H        1.8927777585    1.3890332606    0.9007161379
H       -0.0145525269   -2.2931118588   -0.3456109438
H        6.2310119825    0.5869804733   -2.0805365089
H        5.5483558072    1.6765803328    1.9984677868
H        3.5752914780   -4.2054586950   -0.8871315226
H        4.5457020067   -3.0098692747   -0.0234332125
H        4.7143937979   -0.9344950025   -3.1525302746
30   

C       -1.3664514864    0.6555699281    0.7283366377
C       -0.1965023669    1.4142928128    0.7289715108
C       -1.2967412735   -0.7124869843    0.4717657950
C        5.9772465161    1.2275498812    0.0318011390
C        1.0397534285    0.8075293991    0.4757963760
C       -0.0605088333   -1.3162293673    0.2200117498
C        5.6691951586    0.4900618574   -1.1074331921
C        5.1816538164    1.0954416768    1.1654953800
C        1.1405478513   -0.5688355882    0.2159807932
C        3.7055330177   -0.4373717280   -0.0122069439
C        4.5636380185   -0.3638936736   -1.1361579306
C        4.0597395412    0.2638070917    1.1606389741
C        2.4475223083   -1.2448981690   -0.0352086912
C        4.1703156175   -2.5043969644   -2.1656421602
C        3.6940968326   -3.1434111464   -0.8559875011
N        2.4426965233   -2.5167495286   -0.3763458842
N        4.3808814603   -1.1490775354   -2.2748271060
O        4.4068466064   -3.1832523549   -3.1527078872
F        3.3293432021    0.1447319755    2.2940795415
H       -2.3237297018    1.1258470907    0.9233464896
H       -0.2454429860    2.4799517253    0.9218909755
H       -2.2003935440   -1.3114472005    0.4677729532
H        6.8426462852    1.8821176941    0.0420249915
H        1.9088755550    1.4523600996    0.4644748134
H       -0.0440919876   -2.3839932131    0.0286301755
H        6.3152084325    0.5657765658   -1.9745605633
H        5.4283494957    1.6411755167    2.0685327053
H        3.5183653727   -4.2071296278   -1.0387827232
H        4.4822466407   -3.0629008357   -0.1019913850
H        4.8268867687   -0.8989572098   -3.1479439064
30   

C       -1.3411579581    0.6742548148    0.7868001141
C       -0.2015314433    1.4434236102    0.5487551993
C       -1.2578368999   -0.7167079591    0.7265496927
C        5.9600995420    1.1982538404    0.1167472135
C        1.0184729035    0.8235883441    0.2530448900
C       -0.0374517105   -1.3334891605    0.4316872176
C        5.6989023037    0.4708696108   -1.0402859534
C        5.1087292599    1.0706792203    1.2091957419
C        1.1291328790   -0.5746078033    0.1911146548
C        3.6845206585   -0.4559019296   -0.0397823521
C        4.5892558382   -0.3740551731   -1.1272383706
C        3.9819776494    0.2482260133    1.1478768217
C        2.4217998663   -1.2480046602   -0.1205837588
C        4.1839996932   -2.4744218049   -2.2439462637
C        3.6464784305   -3.1453224004   -0.9764758822
N        2.3976090084   -2.5055195396   -0.5088782017
N        4.4413895705   -1.1246472089   -2.2943065060
O        4.4350484292   -3.1236944873   -3.2471661119
F        3.1944615921    0.1401872536    2.2434248209
H       -2.2865105974    1.1540107061    1.0141601268
H       -0.2624476328    2.5250406975    0.5886238234
H       -2.1386799142   -1.3222961903    0.9073571744
H        6.8291798674    1.8457018816    0.1713488461
H        1.8729961147    1.4600513055    0.0556507805
H       -0.0011957542   -2.4171321233    0.3921512594
H        6.3825725354    0.5512548069   -1.8776144823
H        5.3140589356    1.6137498357    2.1241182394
H        3.4495675177   -4.1965452502   -1.2044473446
H        4.4118797783   -3.1142787398   -0.1958964589
H        4.9250082421   -0.8569122182   -3.1418166964
30   

C       -1.3216349759    0.6907681082    0.8399461780
C       -0.2410287793    1.4408771042    0.3712357664
C       -1.1931501832   -0.6919946215    0.9824300146
C        5.9458566443    1.1524030835    0.2159270229
C        0.9659650511    0.8097103227    0.0480803237
C        0.0144692008   -1.3202358558    0.6595921977
C        5.7229005574    0.4330861870   -0.9537434924
C        5.0472530638    1.0344532768    1.2704315678
C        1.1181926578   -0.5779453543    0.1932471059
C        3.6627337429   -0.4808333631   -0.0367872791
C        4.6079003517   -0.3983071944   -1.0903543894
C        3.9145248637    0.2255366044    1.1609246556
C        2.3944551000   -1.2527502402   -0.1713677642
C        4.1852744010   -2.4603858634   -2.2815943629
C        3.5905753833   -3.1542276159   -1.0540326501
N        2.3476258785   -2.4969068244   -0.5960723765
N        4.4894076847   -1.1200627263   -2.2791841754
O        4.4462282567   -3.0844969288   -3.2981268964
F        3.0811178193    0.1313079286    2.2232813779
H       -2.2575659500    1.1785889293    1.0881277659
H       -0.3387439370    2.5140446334    0.2531926112
H       -2.0295408238   -1.2815641455    1.3403684129
H        6.8192821744    1.7895825324    0.3085261941
H        1.7836260001    1.4152138689   -0.3270061850
H        0.0950185475   -2.3964793965    0.7710604776
H        6.4388322103    0.5126398925   -1.7637344753
H        5.2190463513    1.5753515893    2.1935068376
H        3.3713417324   -4.1914217523   -1.3223744124
H        4.3341012546   -3.1711703615   -0.2522040849
H        5.0072969542   -0.8415866866   -3.1026688145
30   

C       -1.2980410060    0.7026893964    0.8602180653
C       -0.3067672975    1.4114061391    0.1762259558
C       -1.0884685323   -0.6383438755    1.1911607847
C        5.9609150356    1.1065664048    0.3014799789
C        0.8932033564    0.7807096556   -0.1727417035
C        0.1121423520   -1.2662389299    0.8419445739
C        5.7636281179    0.4154826014   -0.8892707393
C        5.0258025738    0.9847756216    1.3227768863
C        1.1242359914   -0.5607883036    0.1655193635
C        3.6625071069   -0.4870004501   -0.0558214265
C        4.6400678899   -0.3936924140   -1.0793869854
C        3.8842231180    0.1973387188    1.1613873879
C        2.3878584588   -1.2329274708   -0.2481526963
C        4.1989775927   -2.4019641231   -2.3606123939
C        3.5550587386   -3.1279619340   -1.1782519629
N        2.3195568965   -2.4585937621   -0.7183577153
N        4.5427996341   -1.0732823195   -2.2950337106
O        4.4677234757   -2.9910812711   -3.3957887641
F        3.0169934987    0.1014441866    2.1961270700
H       -2.2290021275    1.1894661314    1.1283112939
H       -0.4693774569    2.4499189065   -0.0887577841
H       -1.8573172178   -1.1957131380    1.7140607702
H        6.8409383061    1.7271324575    0.4351378648
H        1.6477611968    1.3416693081   -0.7134986734
H        0.2615819344   -2.3112209598    1.0923455495
H        6.5052044526    0.5020979160   -1.6750853095
H        5.1750012492    1.5064948367    2.2606836512
H        3.3150901630   -4.1467474420   -1.4950622195
H        4.2786473886   -3.1990693734   -0.3613325227
H        5.0902969581   -0.7778302311   -3.0930799251
30   

C       -1.3074036750    0.7124007258    0.8690489294
C       -0.4279080622    1.3372420866   -0.0200352228
C       -0.9881136368   -0.5424513679    1.3953535917
C        5.9752282319    1.0338447010    0.4089183037
C        0.7711076543    0.7097294566   -0.3780236384
C        0.2113611775   -1.1671847448    1.0363286207
C        5.7899845596    0.3775643125   -0.8029564752
C        5.0146797654    0.9074958846    1.4053801931
C        1.1110176950   -0.5398070123    0.1575497092
C        3.6531758908   -0.5034982204   -0.0379993061
C        4.6542025083   -0.4020785496   -1.0385794771
C        3.8608274552    0.1487288791    1.1997081419
C        2.3687059663   -1.2163693691   -0.2797109710
C        4.1900096922   -2.3550630619   -2.3985940824
C        3.5046538557   -3.1058948902   -1.2563027066
N        2.2784743904   -2.4222199115   -0.7930911608
N        4.5678506275   -1.0397925973   -2.2777422479
O        4.4626591449   -2.9127576060   -3.4500064632
F        2.9707521120    0.0485428510    2.2142046430
H       -2.2378842299    1.1960719770    1.1443247210
H       -0.6773270061    2.3063113886   -0.4370228703
H       -1.6717290026   -1.0360058180    2.0767107126
H        6.8645053015    1.6323017913    0.5774720937
H        1.4413236567    1.1975584796   -1.0775369237
H        0.4482951218   -2.1479551852    1.4345388584
H        6.5498713773    0.4696714529   -1.5704195878
H        5.1529294168    1.4038624072    2.3585776456
H        3.2444465825   -4.1056506739   -1.6150301656
H        4.2106054106   -3.2262533409   -0.4298074539
H        5.1391893267   -0.7310699702   -3.0537587622
30   

C       -1.3322902317    0.7544586930    0.8407007219
C       -0.5710679416    1.2348430260   -0.2293123602
C       -0.8934610748   -0.3605540728    1.5608192403
C        5.9908633283    0.9684787378    0.5337517239
C        0.6306379848    0.6048018914   -0.5737384607
C        0.3080933697   -0.9884944204    1.2143460546
C        5.8039207553    0.3645130918   -0.7044176837
C        5.0204153458    0.8190909830    1.5169670241
C        1.0910485077   -0.4983622295    0.1556522339
C        3.6456737061   -0.5101658929    0.0090855299
C        4.6568440782   -0.3851047171   -0.9793571549
C        3.8551657487    0.0895663370    1.2728980546
C        2.3503728990   -1.1873814446   -0.2767086218
C        4.1714286453   -2.2705171229   -2.4251276686
C        3.4584052495   -3.0549984101   -1.3233704195
N        2.2409969877   -2.3649637117   -0.8471616247
N        4.5701377644   -0.9683084585   -2.2452117593
O        4.4446846006   -2.7878947303   -3.4967989890
F        2.9579594214   -0.0338703925    2.2775626262
H       -2.2645779675    1.2400568538    1.1063081051
H       -0.9147877816    2.0922148146   -0.7967450771
H       -1.4863091025   -0.7438637798    2.3834731002
H        6.8885392734    1.5447349634    0.7323896969
H        1.2086986462    0.9749765304   -1.4135451691
H        0.6379200865   -1.8634088696    1.7638904234
H        6.5709352023    0.4748539194   -1.4623093730
H        5.1594805308    1.2751305198    2.4899702950
H        3.1821386280   -4.0330887286   -1.7270155518
H        4.1517058180   -3.2241746397   -0.4947484346
H        5.1544517293   -0.6372922189   -3.0021439989
30   

C       -1.3578301423    0.7340838155    0.7424632259
C       -0.7062179562    1.0008332761   -0.4654946433
C       -0.8034237248   -0.1784475139    1.6449164158
C        6.0147074644    0.8815474239    0.6284056142
C        0.5047877718    0.3655113329   -0.7641132626
C        0.4065735093   -0.8138978327    1.3439803963
C        5.8046913434    0.3506559567   -0.6384797674
C        5.0635491689    0.6719190980    1.6187174665
C        1.0873620597   -0.5235980986    0.1491803092
C        3.6572194063   -0.5665734835    0.0614889492
C        4.6529692737   -0.3832548802   -0.9348960507
C        3.8934422041   -0.0429491759    1.3544531372
C        2.3549684202   -1.2225114471   -0.2563019269
C        4.1615298643   -2.1921977056   -2.4701005404
C        3.4560797621   -3.0325269398   -1.4051133990
N        2.2405096601   -2.3629939904   -0.8965638340
N        4.5478337647   -0.8959406371   -2.2296245202
O        4.4305210798   -2.6538157873   -3.5680120536
F        3.0224709431   -0.2265506684    2.3705721148
H       -2.2964445660    1.2249972926    0.9738488111
H       -1.1421265242    1.6953366257   -1.1746406442
H       -1.3143760238   -0.4009633873    2.5747472777
H        6.9155236464    1.4468719488    0.8435437031
H        0.9962544341    0.5649522062   -1.7103477464
H        0.8165042570   -1.5406433227    2.0365551679
H        6.5574418801    0.5058966154   -1.4027768313
H        5.2218736861    1.0691636816    2.6142929999
H        3.1782962773   -3.9896463839   -1.8552844449
H        4.1522197080   -3.2403497303   -0.5877591354
H        5.1214740792   -0.5221730386   -2.9747246368
30   

C       -1.3780405553    0.7132515542    0.6199435929
C       -0.8285797510    0.7147604921   -0.6646173015
C       -0.7180188822    0.0475071058    1.6561615946
C        6.0551669383    0.7930146820    0.6720372746
C        0.3906604434    0.0718642845   -0.9058593123
C        0.4999198127   -0.5985634840    1.4138624671
C        5.7849211636    0.3734890503   -0.6239275767
C        5.1616671217    0.4763728505    1.6865574518
C        1.0926369648   -0.5527874913    0.1381022851
C        3.6785600564   -0.6269425460    0.0971031487
C        4.6265985715   -0.3476748676   -0.9244652385
C        3.9856632978   -0.2284624497    1.4197026692
C        2.3643464633   -1.2594825517   -0.2413071938
C        4.1233508016   -2.0611525644   -2.5530285885
C        3.4623561004   -2.9796742332   -1.5232807820
N        2.2485109246   -2.3558871178   -0.9557473624
N        4.4717272677   -0.7672173221   -2.2473523426
O        4.3750408008   -2.4497284291   -3.6828739965
F        3.1891914721   -0.5300422052    2.4646111066
H       -2.3223619584    1.2116604944    0.8081064701
H       -1.3492906819    1.2090663043   -1.4768944359
H       -1.1572656790    0.0180759421    2.6468391799
H        6.9604312886    1.3497084013    0.8910047903
H        0.8007008608    0.0647234697   -1.9103758809
H        0.9536599723   -1.1589035110    2.2207459886
H        6.4969457228    0.6031979368   -1.4082427564
H        5.3721218184    0.7787038610    2.7055546284
H        3.1891072162   -3.9131876986   -2.0230314779
H        4.1806312448   -3.2211832729   -0.7348176700
H        5.0100664640   -0.3320643247   -2.9854297301
30   

C       -1.3556474716    0.7782578414    0.5105035707
C       -0.9614904990    0.4019266954   -0.7741544059
C       -0.5482633580    0.4573979221    1.6031899326
C        6.0170061561    0.6992294579    0.7920513978
C        0.2400330362   -0.2886128289   -0.9646328797
C        0.6542570656   -0.2345248930    1.4147249516
C        5.6783757101    0.4749465884   -0.5377129466
C        5.2203553101    0.1595494311    1.7960896182
C        1.0719711900   -0.6146682061    0.1226275039
C        3.6612515128   -0.7072596182    0.1432063242
C        4.5331634651   -0.2498667725   -0.8753319837
C        4.0611650613   -0.5573937359    1.4881534166
C        2.3452140741   -1.3322541737   -0.2156694625
C        4.0588852154   -1.8339837896   -2.6254933004
C        3.4892701962   -2.8809218027   -1.6584804525
N        2.2590493768   -2.3764727954   -1.0104536217
N        4.3286596033   -0.5439931726   -2.2246384138
O        4.2951078768   -2.1112748399   -3.7909383193
F        3.3835765489   -1.1405338009    2.4995303483
H       -2.2866988969    1.3135817392    0.6594042797
H       -1.5863122142    0.6439088572   -1.6264275158
H       -0.8559361459    0.7417135655    2.6031248885
H        6.9111971074    1.2607319091    1.0420790712
H        0.5282385721   -0.5709136925   -1.9721302921
H        1.2232946351   -0.4708748395    2.2988685954
H        6.3307535614    0.8494229600   -1.3181137313
H        5.5013292045    0.2844619128    2.8350281574
H        3.2539921301   -3.7838283194   -2.2288090732
H        4.2451865302   -3.1447433728   -0.9133549976
H        4.8117842961   -0.0157679636   -2.9397745588
30   

C       -1.3647473027    0.7933131057    0.4941319533
C       -1.1156223327    0.1630331311   -0.7251056148
C       -0.4040924856    0.7449162467    1.5048755291
C        6.0120905509    0.6164349549    0.8970927657
C        0.0869787650   -0.5221218164   -0.9290982367
C        0.8004928679    0.0610112140    1.3026749035
C        5.6853663371    0.4818757399   -0.4488225580
C        5.1997136748    0.0213256491    1.8579057620
C        1.0590044750   -0.6080423121    0.0866607032
C        3.6489236996   -0.7110058632    0.1371393470
C        4.5359652537   -0.2070742857   -0.8424418544
C        4.0356241179   -0.6594734486    1.4918620189
C        2.3335954269   -1.3137094197   -0.2598973565
C        4.0771799424   -1.7059455009   -2.6656401318
C        3.5096604608   -2.7986981786   -1.7470241142
N        2.2684877626   -2.3349745106   -1.0880445271
N        4.3447439663   -0.4346419955   -2.2059206605
O        4.3195637121   -1.9312818909   -3.8410247187
F        3.3285518645   -1.3006334615    2.4504759518
H       -2.2969329736    1.3239224678    0.6525522658
H       -1.8533577511    0.2055575205   -1.5183905781
H       -0.5891334549    1.2443728317    2.4491563594
H        6.9104655529    1.1493489417    1.1909175265
H        0.2531953155   -0.9912106824   -1.8934085499
H        1.5113769370    0.0815205433    2.1133621637
H        6.3514234792    0.8942511981   -1.1979522304
H        5.4722252482    0.0738811277    2.9052518570
H        3.2885114922   -3.6792406033   -2.3566000081
H        4.2621674008   -3.0868800451   -1.0074772870
H        4.8336008835    0.1261018981   -2.8917758591
30   

C       -1.3867225962    0.7625912015    0.5365816531
C       -1.2467179566   -0.0593962442   -0.5812218836
C       -0.3090221314    0.9336274480    1.4051236565
C        6.0138699921    0.5405290641    0.9928933444
C       -0.0368606442   -0.7195874896   -0.8227335962
C        0.9025080155    0.2753633686    1.1649416167
C        5.7265674913    0.4456333261   -0.3656234715
C        5.1514064593   -0.0459089173    1.9146751851
C        1.0542852004   -0.5929591113    0.0599327243
C        3.6412978568   -0.7031096428    0.1279889030
C        4.5714416006   -0.2008268444   -0.8117076346
C        3.9801125306   -0.6822341848    1.4963920185
C        2.3300522376   -1.2797451729   -0.3125517803
C        4.1315843951   -1.6372503752   -2.6873614067
C        3.5280775513   -2.7435968569   -1.8098445124
N        2.2781210648   -2.2820687494   -1.1657745503
N        4.4150499051   -0.3861514615   -2.1855596184
O        4.3972193245   -1.8358632109   -3.8625652487
F        3.2021397829   -1.2944547464    2.4198311525
H       -2.3244840725    1.2738925679    0.7230861973
H       -2.0756741037   -0.1852174892   -1.2685139551
H       -0.4074129875    1.5866312732    2.2649211442
H        6.9177079094    1.0395084683    1.3268613590
H        0.0320899990   -1.3375339385   -1.7118362448
H        1.7099001248    0.4793233284    1.8524653803
H        6.4276350012    0.8554649191   -1.0835777640
H        5.3872839187   -0.0179812017    2.9718540777
H        3.3100615001   -3.6055452991   -2.4464937038
H        4.2598308592   -3.0605518220   -1.0613308161
H        4.9323698614    0.1836018487   -2.8424962296
30   

C       -1.3965345397    0.7290205391    0.5975227672
C       -1.3381763499   -0.2487578580   -0.3950012778
C       -0.2365735085    1.0797257767    1.2873165480
C        6.0057017772    0.4601416427    1.0695501823
C       -0.1262386659   -0.8839998042   -0.6885068288
C        0.9763981023    0.4463603969    0.9946501252
C        5.7684804377    0.3924616287   -0.3001671923
C        5.0858223391   -0.1019325656    1.9495546450
C        1.0523946150   -0.5748946119    0.0188859514
C        3.6319643123   -0.6998571357    0.0949870440
C        4.6114464532   -0.2093517015   -0.8011551948
C        3.9114645897   -0.6927561629    1.4776398652
C        2.3251406760   -1.2411842249   -0.3933222778
C        4.1874288912   -1.5729424660   -2.7356453284
C        3.5282188496   -2.6857937719   -1.9105938303
N        2.2747795221   -2.2116614861   -1.2831468727
N        4.4980104354   -0.3505751552   -2.1843089463
O        4.4817832303   -1.7431379034   -3.9084692928
F        3.0608321553   -1.2594612645    2.3653637252
H       -2.3358808642    1.2211298341    0.8234737621
H       -2.2332621211   -0.5158521985   -0.9453033121
H       -0.2726663616    1.8531611587    2.0461395912
H        6.9117157852    0.9243470344    1.4452021790
H       -0.1283235812   -1.6287953502   -1.4772530625
H        1.8492071140    0.7885932733    1.5334436374
H        6.5091277828    0.7909130009   -0.9840007978
H        5.2759772970   -0.0868039057    3.0162008091
H        3.3039603850   -3.5209153401   -2.5799751881
H        4.2304115734   -3.0468993516   -1.1538417611
H        5.0530056969    0.2225779325   -2.8066234271
30   

C       -1.3917500907    0.6974338299    0.6631599390
C       -1.3798844886   -0.4094425502   -0.1859536863
C       -0.1880977843    1.2009178921    1.1565179947
C        5.9899504672    0.3834801772    1.1520641547
C       -0.1686602618   -1.0188420997   -0.5330618207
C        1.0235878201    0.5931811553    0.8099269806
C        5.8113771558    0.3300741991   -0.2269645508
C        5.0101736268   -0.1432020944    1.9875195219
C        1.0564389666   -0.5485410046   -0.0233314457
C        3.6261316705   -0.6973844874    0.0657491627
C        4.6578219940   -0.2282486785   -0.7837883804
C        3.8382991210   -0.6908833228    1.4612921520
C        2.3243245580   -1.1945799769   -0.4736934371
C        4.2496480408   -1.5178853252   -2.7763940702
C        3.5206098855   -2.6269937974   -2.0104198637
N        2.2679929468   -2.1278297346   -1.4019264383
N        4.5951374326   -0.3307760023   -2.1737257703
O        4.5762989504   -1.6626593905   -3.9440587086
F        2.9223827604   -1.2123340680    2.3106621439
H       -2.3307046505    1.1693124015    0.9301311559
H       -2.3111736621   -0.7977476567   -0.5824770520
H       -0.1907261236    2.0712142662    1.8029332316
H        6.8939631511    0.8140972863    1.5701561330
H       -0.2048051493   -1.8712101194   -1.2031768208
H        1.9336488998    1.0411966557    1.1886413519
H        6.5937377629    0.7093917987   -0.8742715525
H        5.1495014875   -0.1321256759    3.0620556805
H        3.2849843097   -3.4299813267   -2.7143308220
H        4.1847751234   -3.0408800756   -1.2464267195
H        5.1938563977    0.2378435204   -2.7585432799
