23   

C        5.6714018173    1.7905885456    0.1024130098
C        4.7615611109    2.1001305883   -0.9080918111
C        5.4475134241    0.6780207122    0.9130964287
C        3.6365486255    1.2927406435   -1.1114235844
C        4.3207913620   -0.1272539147    0.7083931938
C        3.3976863882    0.1482551491   -0.3220298855
C        1.2930917011   -0.6065754939   -1.5339777331
C        2.1983112263   -0.6870352723   -0.5130619146
C        0.1478330243   -1.5482334406   -1.3283768449
C        1.7411792988   -1.7138808513    0.5142638396
C        0.7958026090   -2.5486912177   -0.3625160199
H        6.5445287315    2.4136191132    0.2601594336
H        4.9244359558    2.9689876435   -1.5355364471
H        6.1473945079    0.4364960703    1.7049398352
H        2.9437845810    1.5672743952   -1.8962256731
H        4.1856423839   -0.9758441836    1.3651946063
H        1.3900705283    0.0350172725   -2.4011282849
H       -0.1877726889   -2.0260405991   -2.2542621969
H       -0.6809784364   -1.0208509355   -0.8449652415
H        1.1936664824   -1.2138763560    1.3196613863
H        2.5456870873   -2.3358144349    0.9160876336
H        0.0722414769   -3.1378117124    0.2097790954
H        1.4114553080   -3.2330528661   -0.9564031189
23   

C        5.6219477042    1.8029553680    0.1495036001
C        4.6487432211    2.1746964353   -0.7787809919
C        5.4741557742    0.6142814449    0.8654981497
C        3.5390799002    1.3507647163   -0.9997260304
C        4.3617417147   -0.2063626588    0.6441471162
C        3.3879415249    0.1268787584   -0.3171525404
C        1.3334722126   -0.6655304389   -1.5746524838
C        2.1913202213   -0.7122278493   -0.5124870485
C        0.1462437443   -1.5527698342   -1.3632571916
C        1.6315449795   -1.6215807353    0.5725220574
C        0.7031919513   -2.4935357537   -0.2858495367
H        6.4844748386    2.4375919234    0.3188352770
H        4.7500300157    3.1045303842   -1.3267516752
H        6.2223694589    0.3252849121    1.5947509602
H        2.7886716466    1.6712383783   -1.7113826815
H        4.2789846042   -1.1197097858    1.2182703434
H        1.4979843548   -0.0842945421   -2.4740971902
H       -0.1529397933   -2.0928140465   -2.2672292122
H       -0.6895274227   -0.9636945251   -0.9721985907
H        1.0600869117   -1.0287388447    1.2939566130
H        2.3841408161   -2.2304539406    1.0805220212
H       -0.0721993404   -3.0086196856    0.2899475243
H        1.3232294428   -3.2449999111   -0.7869341751
23   

C        5.6020290563    1.8052417678    0.1981035383
C        4.5722982898    2.2333591059   -0.6419916841
C        5.5222031859    0.5503194919    0.8051586766
C        3.4763862531    1.3981967030   -0.8885834560
C        4.4223132561   -0.2798976448    0.5583718031
C        3.4032627972    0.1089207824   -0.3287415061
C        1.3943743189   -0.7275458334   -1.6192266718
C        2.2086362474   -0.7352390689   -0.5238182256
C        0.1682711325   -1.5588570418   -1.3998654414
C        1.5561086867   -1.5166423168    0.6072323220
C        0.6369135048   -2.4258270102   -0.2217084613
H        6.4546138492    2.4480275374    0.3860084964
H        4.6187795990    3.2149083960   -1.0997197499
H        6.3123098183    0.2183352529    1.4689623659
H        2.6753231334    1.7549195489   -1.5245167219
H        4.3783552186   -1.2469140864    1.0435813378
H        1.6180729712   -0.2061792873   -2.5427078521
H       -0.1028954644   -2.1622373727   -2.2721122991
H       -0.6655972887   -0.9150101007   -1.1026458469
H        0.9746412365   -0.8379974085    1.2395934256
H        2.2605938571   -2.0977922826    1.2089256250
H       -0.1843993127   -2.8635796238    0.3543695509
H        1.2509922449   -3.2377292130   -0.6267504638
23   

C        5.5977736548    1.7907447006    0.2382070095
C        4.5120811662    2.2723842371   -0.4968924982
C        5.5803130803    0.4795053711    0.7195226660
C        3.4240556432    1.4345542003   -0.7686015091
C        4.4871847357   -0.3518732157    0.4478386617
C        3.4191384829    0.0935790363   -0.3472131755
C        1.4562760097   -0.8022272315   -1.6665665238
C        2.2247493325   -0.7562099141   -0.5408781989
C        0.1950455674   -1.5778532298   -1.4402165553
C        1.4884616942   -1.4034335867    0.6223556556
C        0.5762689888   -2.3524319559   -0.1687764847
H        6.4444908050    2.4355118726    0.4449002244
H        4.5089608259    3.2965389574   -0.8521517010
H        6.4119713336    0.1058593409    1.3058891012
H        2.5757368058    1.8247354656   -1.3182717631
H        4.4784948709   -1.3629005423    0.8371660939
H        1.7348057209   -0.3492529434   -2.6111741723
H       -0.0513405014   -2.2476199624   -2.2703950022
H       -0.6317715883   -0.8881790078   -1.2434075307
H        0.9049606517   -0.6488910809    1.1597166239
H        2.1461849705   -1.9459592884    1.3080220048
H       -0.2864570718   -2.7109775174    0.4014592494
H        1.1788505663   -3.2163566426   -0.4703482438
23   

C        5.6132038193    1.7627992085    0.2471369973
C        4.4665122169    2.2971159839   -0.3462371434
C        5.6529042272    0.4062765539    0.5802206789
C        3.3731114612    1.4688605389   -0.6258677611
C        4.5541221225   -0.4152621885    0.3013653342
C        3.4231676683    0.0917078029   -0.3552662704
C        1.5308910497   -0.9064262127   -1.7104927397
C        2.2263393877   -0.7610091579   -0.5477672208
C        0.2436681189   -1.6403710817   -1.4901523690
C        1.4050403639   -1.2720187919    0.6261761707
C        0.5271604785   -2.2852400513   -0.1233674261
H        6.4636829322    2.4006389724    0.4597935874
H        4.4208626677    3.3535303399   -0.5850064268
H        6.5325910652   -0.0097491509    1.0578888784
H        2.4774298660    1.8920235816   -1.0652242336
H        4.5833935174   -1.4628207797    0.5772586298
H        1.8778198936   -0.5493686723   -2.6734744585
H        0.0395846658   -2.3891110931   -2.2623289843
H       -0.5815683812   -0.9248438167   -1.4199835515
H        0.8040188433   -0.4579274001    1.0439639607
H        2.0111310531   -1.7472738153    1.4036206817
H       -0.3772310660   -2.5726388911    0.4220544460
H        1.1310699353   -3.1831757073   -0.2950229156
23   

C        5.6849964277    1.7097139604    0.0804644630
C        4.4574555174    2.3007851384   -0.2335471693
C        5.7808802312    0.3186086382    0.1839953632
C        3.3289180960    1.4996500358   -0.4439795983
C        4.6497516433   -0.4788567765   -0.0276781423
C        3.4149758020    0.1014554919   -0.3468766136
C        1.7665605041   -1.2563591877   -1.7317580711
C        2.2139742305   -0.7465139839   -0.5519983296
C        0.5039836946   -2.0361998044   -1.5309162023
C        1.2995216499   -1.1329829327    0.6001637133
C        0.6268771738   -2.3624512425   -0.0320084326
H        6.5599169236    2.3285415320    0.2446433305
H        4.3785050924    3.3790167807   -0.3129330117
H        6.7304579263   -0.1430988092    0.4294379445
H        2.3771482975    1.9587393001   -0.6843760180
H        4.7251035943   -1.5567254284    0.0559447741
H        2.2770976636   -1.1363368715   -2.6805227907
H        0.4525453169   -2.9385068832   -2.1483088189
H       -0.3610391703   -1.3917371246   -1.7192139519
H        0.5730559546   -0.3343034302    0.7803970341
H        1.8415538100   -1.3812482788    1.5180621314
H       -0.3247208063   -2.6305027946    0.4378427543
H        1.3163254818   -3.2076036629    0.0687444652
23   

C        5.7112625079    1.7216732068   -0.1130704815
C        4.4445771808    2.3115800697   -0.1193408777
C        5.8313240951    0.3362574592   -0.2509076335
C        3.3015368006    1.5124576115   -0.2394701665
C        4.6844530353   -0.4568952482   -0.3757914014
C        3.4037715480    0.1132658971   -0.3173723764
C        2.0106433563   -1.5854949306   -1.5774277237
C        2.1991330858   -0.7226865353   -0.5393253872
C        0.7738440642   -2.4040920273   -1.3800840174
C        1.1828758464   -0.9847798282    0.5616839568
C        0.7017293509   -2.3861582621    0.1538648061
H        6.5978370751    2.3375644888   -0.0128971967
H        4.3464977413    3.3878746937   -0.0351683519
H        6.8123418895   -0.1247467307   -0.2631381670
H        2.3218646856    1.9750932803   -0.2625595978
H        4.7843240642   -1.5293201979   -0.4953989526
H        2.6928874779   -1.6903824647   -2.4132503620
H        0.8568772394   -3.4179013851   -1.7833565537
H       -0.0862113209   -1.8847922464   -1.8169216976
H        0.3697356035   -0.2557921786    0.4891284036
H        1.6211157493   -0.9733068683    1.5646269099
H       -0.2865393123   -2.6401546785    0.5501807154
H        1.4288937265   -3.1139232467    0.5289407752
23   

C        5.6942339217    1.7342315359   -0.0894299064
C        4.4230116987    2.2904191817    0.0703637167
C        5.8224249895    0.3768072907   -0.3929776367
C        3.2858875338    1.4831937795   -0.0508619532
C        4.6810460724   -0.4242636053   -0.5175276707
C        3.3980327187    0.1026655345   -0.2941189738
C        2.0617393258   -1.6798099128   -1.4933720382
C        2.1942385425   -0.7234049831   -0.5290747895
C        0.7932332668   -2.4540641126   -1.3199838430
C        1.0815261581   -0.8594184213    0.4997002853
C        0.6009616928   -2.2860818360    0.1935389292
H        6.5769454521    2.3557821661    0.0099161111
H        4.3161903491    3.3480329890    0.2828524373
H        6.8058892165   -0.0565428116   -0.5347256442
H        2.3022515295    1.9259000273    0.0524672080
H        4.7935111842   -1.4731036806   -0.7648633616
H        2.7998272162   -1.8791805458   -2.2616560727
H        0.8832978580   -3.5036728492   -1.6160240145
H       -0.0165020373   -1.9655685916   -1.8729559355
H        0.2951503103   -0.1287191500    0.2860531773
H        1.4332478156   -0.7545491453    1.5309140116
H       -0.4213446311   -2.4839553796    0.5311228608
H        1.2789400388   -2.9848355859    0.6948565368
23   

C        5.6881895813    1.7383465338   -0.0425290579
C        4.4191030921    2.2469208538    0.2415128246
C        5.8220806708    0.4204395978   -0.4845945521
C        3.2903226880    1.4312886120    0.1007393514
C        4.6895718967   -0.3901207690   -0.6274655902
C        3.4092259711    0.0860422064   -0.2939578817
C        2.0957241865   -1.7559317858   -1.4338393789
C        2.2093248496   -0.7377691223   -0.5305899238
C        0.7906868665   -2.4730451118   -1.2853800174
C        1.0170345369   -0.7455788117    0.4153739512
C        0.5053172700   -2.1764939287    0.1930234850
H        6.5644749669    2.3666783325    0.0701791502
H        4.3070208933    3.2751297099    0.5660675764
H        6.8036794148    0.0247279256   -0.7190797349
H        2.3091330263    1.8434435927    0.3040787071
H        4.8137118428   -1.4073891312   -0.9778040161
H        2.8634843595   -2.0360258522   -2.1453532711
H        0.8616316591   -3.5458013003   -1.4896443437
H        0.0371783763   -2.0069592785   -1.9294886365
H        0.2781584353   -0.0110257961    0.0798179191
H        1.2933943593   -0.5644548551    1.4589107771
H       -0.5436481431   -2.3139485000    0.4740469105
H        1.1226143765   -2.8524236177    0.7943237340
23   

C        5.6802296585    1.7364013515    0.0026330613
C        4.4183997774    2.1846421097    0.3978691360
C        5.8168361193    0.4687994893   -0.5666698107
C        3.2988524127    1.3603006975    0.2353977367
C        4.6945930291   -0.3519715881   -0.7304753776
C        3.4209505649    0.0658961469   -0.3031922162
C        2.1205751155   -1.8315553051   -1.3792227687
C        2.2279696074   -0.7665864348   -0.5296377703
C        0.7826594611   -2.4917815941   -1.2598206541
C        0.9755226386   -0.6562886704    0.3280681760
C        0.4198387752   -2.0794251077    0.1729890579
H        6.5488749032    2.3723381265    0.1308148825
H        4.3045237480    3.1735765711    0.8270156829
H        6.7931486319    0.1196162331   -0.8829101698
H        2.3262310865    1.7336385379    0.5320382326
H        4.8270354402   -1.3296702169   -1.1759786428
H        2.9061718828   -2.1810537138   -2.0380506469
H        0.8253552481   -3.5784775635   -1.3821549249
H        0.0866837737   -2.0499469166   -1.9809871514
H        0.2930229022    0.0786290655   -0.1105175750
H        1.1868344069   -0.4118746405    1.3738984631
H       -0.6490788960   -2.1581717823    0.3952313481
H        0.9708739358   -2.7323728497    0.8583243471
23   

C        5.6824079290    1.7260616227    0.0468569779
C        4.4362903718    2.1114879074    0.5444044241
C        5.8092952327    0.5166606983   -0.6388385305
C        3.3210436618    1.2850893368    0.3627961628
C        4.6927075052   -0.3077643757   -0.8211873698
C        3.4325919138    0.0533148632   -0.3090337852
C        2.1454987559   -1.8960418942   -1.3186550309
C        2.2461631201   -0.7920407375   -0.5187855407
C        0.7791095941   -2.5025132855   -1.2430177386
C        0.9427880510   -0.5740788432    0.2370283480
C        0.3391988132   -1.9822097389    0.1315871936
H        6.5467583771    2.3649126779    0.1888903514
H        4.3311389738    3.0538880748    1.0697446199
H        6.7740621139    0.2151916513   -1.0305900845
H        2.3661969689    1.6193831727    0.7484125039
H        4.8216864770   -1.2397327152   -1.3558369077
H        2.9481562182   -2.3067265479   -1.9184975006
H        0.7896420389   -3.5959367340   -1.2894213331
H        0.1472719011   -2.0895054630   -2.0365186744
H        0.3255024718    0.1571190261   -0.2946704680
H        1.0863933012   -0.2771167577    1.2805918800
H       -0.7444468378   -2.0066614583    0.2841594671
H        0.8152793145   -2.6088831981    0.8934713336
23   

C        5.6955549973    1.7063491806    0.0873695215
C        4.4760651366    2.0282541098    0.6854036275
C        5.7953211057    0.5631988732   -0.7072350147
C        3.3582652788    1.2080694924    0.4905651557
C        4.6773750568   -0.2563698504   -0.9018564732
C        3.4395211056    0.0501590050   -0.3058373391
C        2.1713356188   -1.9455800796   -1.2528717934
C        2.2580617444   -0.8081433185   -0.4991277687
C        0.7842600236   -2.5079447748   -1.2385690554
C        0.9101780687   -0.4979625792    0.1382523226
C        0.2621792416   -1.8884751729    0.0638482356
H        6.5608143896    2.3418428306    0.2386698411
H        4.3936842554    2.9165256419    1.3013379766
H        6.7401488464    0.3093846191   -1.1741488373
H        2.4312045391    1.4989556222    0.9663484235
H        4.7869738367   -1.1359291277   -1.5223698454
H        2.9944503623   -2.4071284751   -1.7838650362
H        0.7632964419   -3.6020193570   -1.2145157692
H        0.2244360667   -2.1310384257   -2.1009201309
H        0.3655923825    0.2235973580   -0.4791693708
H        0.9768235109   -0.1551532516    1.1749446119
H       -0.8300150288   -1.8675015427    0.1332918139
H        0.6542461083   -2.4837734078    0.8956588764
23   

C        5.7349653712    1.6818170883    0.1288267584
C        4.5558004909    1.9362076321    0.8309229163
C        5.7862195347    0.6177146875   -0.7726910304
C        3.4279244986    1.1318844830    0.6278450680
C        4.6585770253   -0.1867810624   -0.9737577900
C        3.4543747442    0.0641956737   -0.2890751920
C        2.2083463753   -1.9666424146   -1.1827554796
C        2.2742189628   -0.7995502354   -0.4736592417
C        0.8109976522   -2.5005372306   -1.2354380543
C        0.8901452267   -0.4153842120    0.0318861634
C        0.2087685116   -1.7910897121   -0.0161097500
H        6.6074341083    2.3061676925    0.2850326295
H        4.5133072850    2.7581061501    1.5365200716
H        6.7005582520    0.4139517901   -1.3182102250
H        2.5378023583    1.3624135938    1.1970184272
H        4.7291233876   -1.0036936705   -1.6799213084
H        3.0544875678   -2.4678942775   -1.6362085421
H        0.7632162879   -3.5903298025   -1.1444570630
H        0.3243235251   -2.1695443195   -2.1586450166
H        0.4202761163    0.2820342611   -0.6690176716
H        0.8766576732   -0.0148822299    1.0490208409
H       -0.8844273189   -1.7389975951   -0.0343245685
H        0.5170597987   -2.3455731097    0.8769670990
23   

C        5.7531039206    1.6417047550    0.1562001274
C        4.6201596781    1.8241695322    0.9509426403
C        5.7482642412    0.6631830046   -0.8391711059
C        3.4807989648    1.0381480536    0.7413303565
C        4.6086020569   -0.1232461246   -1.0444784763
C        3.4431219064    0.0702795317   -0.2797042664
C        2.2308633217   -1.9989193836   -1.1110791474
C        2.2651530760   -0.7983991961   -0.4587912149
C        0.8340961980   -2.5258771579   -1.2242321065
C        0.8517030630   -0.3605040485   -0.1013692837
C        0.1555013194   -1.7292249818   -0.1017214553
H        6.6345900446    2.2523979157    0.3156913801
H        4.6237549682    2.5729429482    1.7348322387
H        6.6280961636    0.5118312224   -1.4540745098
H        2.6260523516    1.1922089608    1.3866551744
H        4.6314575103   -0.8752045132   -1.8229649306
H        3.1025234506   -2.5277242590   -1.4774443808
H        0.7680105192   -3.6062657960   -1.0607742364
H        0.4165493767   -2.2577831868   -2.2000572622
H        0.4534454710    0.2839867922   -0.8916322660
H        0.7654482215    0.1258005590    0.8739182050
H       -0.9326611960   -1.6685769522   -0.2032454230
H        0.3911281843   -2.2222195379    0.8478249153
23   

C        5.7728059971    1.6070857750    0.1707985746
C        4.6912449622    1.7082853678    1.0481457279
C        5.7095945883    0.7192226260   -0.9051093689
C        3.5426793145    0.9364979462    0.8367961046
C        4.5603845438   -0.0534852772   -1.1100895589
C        3.4396109017    0.0748100277   -0.2706976421
C        2.2593158057   -2.0361351806   -1.0267930904
C        2.2654581360   -0.8032193318   -0.4396165551
C        0.8663500441   -2.5587658248   -1.1978349268
C        0.8376129369   -0.3191486278   -0.2340058953
C        0.1208524271   -1.6762098341   -0.1859452411
H        6.6613322371    2.2075365709    0.3300580988
H        4.7428538416    2.3806306676    1.8969192458
H        6.5515416847    0.6269056505   -1.5816487514
H        2.7232164300    1.0104376647    1.5409647773
H        4.5325868611   -0.7411023686   -1.9465014486
H        3.1506386471   -2.5848109936   -1.3078478273
H        0.7753143378   -3.6235416283   -0.9604031611
H        0.5205049876   -2.3606077854   -2.2173280594
H        0.5161696265    0.2663457546   -1.1014251027
H        0.6932962156    0.2483825494    0.6898294491
H       -0.9560874877   -1.6115526072   -0.3705193548
H        0.2799648397   -2.1010555451    0.8113028135
23   

C        5.7909219922    1.5774426940    0.1720436838
C        4.7732138351    1.5839564466    1.1287288830
C        5.6573437874    0.7916953143   -0.9751467883
C        3.6157112069    0.8238209809    0.9242837420
C        4.4993816591    0.0298241710   -1.1717228958
C        3.4370423665    0.0768424907   -0.2538317657
C        2.2821677519   -2.0729707592   -0.9261733153
C        2.2632693699   -0.8078743272   -0.4153209700
C        0.8974268703   -2.5929924236   -1.1619595208
C        0.8345858116   -0.2877179694   -0.3678701500
C        0.0909329680   -1.6282072494   -0.2789098270
H        6.6857810614    2.1700625178    0.3250291692
H        4.8816652944    2.1729329454    2.0323091780
H        6.4515184879    0.7695131596   -1.7126284112
H        2.8416196954    0.8160050541    1.6823892168
H        4.4128002948   -0.5852244010   -2.0595194729
H        3.1870040677   -2.6391775613   -1.1151090874
H        0.7722437183   -3.6353816414   -0.8517455544
H        0.6320097444   -2.4705605641   -2.2167603479
H        0.5977065860    0.2357281638   -1.2997787884
H        0.6342815342    0.3511956001    0.4975980334
H       -0.9669175217   -1.5638166495   -0.5524500757
H        0.1635181286   -1.9799329328    0.7561832225
23   

C        5.8008317907    1.5639595027    0.1541386572
C        4.8660064019    1.4461353940    1.1859680171
C        5.5837350593    0.9011694996   -1.0567877950
C        3.7061961241    0.6858448357    0.9954004053
C        4.4241709682    0.1381734046   -1.2393000070
C        3.4445102499    0.0644123029   -0.2375125344
C        2.2965863320   -2.1257928956   -0.7895124667
C        2.2654146535   -0.8187333144   -0.4041561714
C        0.9218368837   -2.6432225918   -1.0834153992
C        0.8530743617   -0.2675306500   -0.5254935841
C        0.0716884251   -1.5803959512   -0.3681772199
H        6.6965602677    2.1578796752    0.2966204785
H        5.0402247869    1.9395105564    2.1353598723
H        6.3139611296    0.9755767115   -1.8544747823
H        2.9930648031    0.5808828880    1.8045746796
H        4.2681409320   -0.3847378182   -2.1755641922
H        3.2025471782   -2.7176529343   -0.8540522269
H        0.7466607453   -3.6466457865   -0.6822126139
H        0.7432357617   -2.6236110271   -2.1630729896
H        0.7054213828    0.1658423067   -1.5199287679
H        0.6046589711    0.4570964103    0.2561267029
H       -0.9591373418   -1.5255757118   -0.7320500239
H        0.0523607624   -1.8285363984    0.6988300344
23   

C        5.6996212761    1.7255017667    0.0979613341
C        4.9299303364    1.3553496931    1.2048870173
C        5.3563776818    1.2596102300   -1.1748844298
C        3.8195270993    0.5196815908    1.0366584415
C        4.2451135901    0.4237948506   -1.3384623295
C        3.4681396699    0.0426152271   -0.2364538470
C        2.2508706539   -2.1898794750   -0.3356197054
C        2.2821843361   -0.8317888254   -0.4169077549
C        0.8666530087   -2.7063535070   -0.5793247993
C        0.9008259448   -0.2623437947   -0.7007623089
C        0.0488463032   -1.4513498296   -0.2272528885
H        6.5596811656    2.3730107471    0.2260926227
H        5.1916919100    1.7156577242    2.1932063798
H        5.9497248292    1.5458961487   -2.0357531163
H        3.2219215457    0.2350826064    1.8947527336
H        3.9794470127    0.0655235299   -2.3261352980
H        3.1093092412   -2.8061904905   -0.0938648043
H        0.6081093573   -3.5609390916    0.0537121961
H        0.7499786382   -2.9625929517   -1.6375944388
H        0.7831927125   -0.0961911297   -1.7762346813
H        0.6864975377    0.6526837495   -0.1397134287
H       -0.9636538636   -1.4567952182   -0.6431617261
H       -0.0221297431   -1.3965815119    0.8643684056
23   

C        5.5761763908    1.8685082056    0.1257626553
C        4.9789799614    1.2525927487    1.2287177772
C        5.1020320056    1.5966404073   -1.1603120000
C        3.9263489223    0.3491941337    1.0401660595
C        4.0461583613    0.6951872992   -1.3408040322
C        3.4830149147    0.0170012399   -0.2500041438
C        2.1495273486   -2.1149660741    0.0426172743
C        2.2960650298   -0.8501953583   -0.4424731742
C        0.7535669251   -2.6121715040   -0.1643679336
C        0.9529046346   -0.2895329777   -0.8851059800
C        0.0070034702   -1.2699783606   -0.1738745984
H        6.3953112482    2.5642935846    0.2681822916
H        5.3263384244    1.4781781636    2.2304956869
H        5.5485887340    2.0862931019   -2.0181698886
H        3.4507257796   -0.1083005380    1.8997184776
H        3.6699223050    0.5014957287   -2.3384455367
H        2.9324506580   -2.6664597346    0.5504578623
H        0.4083762998   -3.2775462499    0.6327750246
H        0.6784754260   -3.1069514097   -1.1389325090
H        0.8609615619   -0.3767704259   -1.9722113144
H        0.7915024974    0.7453975670   -0.5672673972
H       -0.9873568913   -1.3235325918   -0.6284444974
H       -0.0985273309   -0.9415463193    0.8654011417
23   

C        5.5717862928    1.8643111841    0.1618681971
C        5.0766809361    1.1117931410    1.2297053204
C        4.9977143627    1.7298278972   -1.1046909598
C        4.0265358129    0.2095543460    1.0225660558
C        3.9450678704    0.8286929025   -1.3040748895
C        3.4840031792    0.0134044768   -0.2588623392
C        2.1002915552   -2.0649086554    0.1361562196
C        2.3008388837   -0.8513616009   -0.4529803963
C        0.7137593785   -2.5671254800   -0.1167954366
C        0.9990084558   -0.3301332469   -1.0435278310
C       -0.0087660286   -1.2258468618   -0.3067626425
H        6.3887869696    2.5595894962    0.3183258866
H        5.5009223349    1.2309440269    2.2201246936
H        5.3643756467    2.3258102182   -1.9326150507
H        3.6315090284   -0.3499553986    1.8621292486
H        3.4936988801    0.7430565184   -2.2854770616
H        2.8368622602   -2.5763698191    0.7450271502
H        0.3053739341   -3.1476552386    0.7160535377
H        0.6961611820   -3.1543673217   -1.0414096105
H        0.9812898501   -0.5266662331   -2.1200969506
H        0.8295301068    0.7326585376   -0.8436548981
H       -0.9710987664   -1.3142111920   -0.8208955446
H       -0.1782845165   -0.7958494866    0.6860152294
23   

C        5.5873397095    1.8380903261    0.1792149804
C        5.1761063525    0.9890544948    1.2091949699
C        4.9211073621    1.8105497048   -1.0480863993
C        4.1142715815    0.1004074410    1.0029612280
C        3.8576940436    0.9224614378   -1.2483968952
C        3.4691876097    0.0196370864   -0.2447253227
C        2.0516613787   -2.0268039280    0.2119427350
C        2.2924859941   -0.8486042713   -0.4338548388
C        0.6860625039   -2.5505157484   -0.1046733250
C        1.0423499095   -0.3878491906   -1.1694172031
C       -0.0189965167   -1.2303089013   -0.4458290466
H        6.4127170306    2.5234664244    0.3354103382
H        5.6753871631    1.0220767927    2.1708307189
H        5.2257424705    2.4787185505   -1.8454907874
H        3.7913741828   -0.5335696742    1.8196736898
H        3.3423846865    0.9195445821   -2.2014748243
H        2.7433369056   -2.5039635467    0.8962654976
H        0.2164209962   -3.0689491311    0.7368938526
H        0.7349799470   -3.2048333803   -0.9817935603
H        1.1121405506   -0.6711018195   -2.2244043824
H        0.8528096592    0.6856373821   -1.0698579454
H       -0.9405283181   -1.3606463333   -1.0220127068
H       -0.2615049505   -0.7285546493    0.4970092120
23   

C        5.7646830607    1.6553076981    0.0156920030
C        5.0357176462    1.7273169571   -1.1728835009
C        5.3162271965    0.8359420577    1.0533896854
C        3.8531983778    0.9920259600   -1.3164087780
C        4.1345385482    0.1001619713    0.9059415530
C        3.3636531262    0.1897129285   -0.2672796349
C        1.1647184830   -0.4508297575   -1.3598185682
C        2.1527460967   -0.6308468774   -0.4338707671
C        0.1461868130   -1.5451951749   -1.2887899369
C        1.9406126267   -1.9410672215    0.3108802689
C        1.0072280134   -2.6580474720   -0.6758789026
H        6.6786280445    2.2272540586    0.1295826575
H        5.3879045518    2.3500098692   -1.9873393469
H        5.8837535053    0.7688773799    1.9745546420
H        3.3154859707    1.0487484649   -2.2543922376
H        3.8072792753   -0.5310804063    1.7230865224
H        1.1295136704    0.3601234543   -2.0772706708
H       -0.2579670064   -1.8226481130   -2.2672493963
H       -0.6604604208   -1.2558016421   -0.6067120187
H        1.4303616887   -1.7466066986    1.2596104313
H        2.8660220690   -2.5017268429    0.4764518387
H        0.4236284499   -3.4636487474   -0.2191562951
H        1.6246613252   -3.0810035341   -1.4756138725
23   

C        5.7380026251    1.7012437836    0.0313841506
C        4.9565035764    1.8562730814   -1.1141438815
C        5.3572230964    0.7790660087    1.0068968200
C        3.7936892227    1.0947467247   -1.2794182368
C        4.1946058611    0.0177671753    0.8389309615
C        3.3793782981    0.1687438242   -0.3003233518
C        1.2051847470   -0.5117552088   -1.4321497301
C        2.1709597129   -0.6530664534   -0.4754842674
C        0.1462216192   -1.5610387947   -1.2974865934
C        1.8821376580   -1.8757538466    0.3841812108
C        0.9447393445   -2.6435901773   -0.5594325473
H        6.6375503023    2.2922013684    0.1616870282
H        5.2512854936    2.5662861648   -1.8784119423
H        5.9620014183    0.6527540883    1.8976552313
H        3.2138804387    1.2299931048   -2.1831590740
H        3.9259054700   -0.6843671574    1.6180240732
H        1.2035383658    0.2431647737   -2.2086525707
H       -0.2377731265   -1.9120162953   -2.2603994070
H       -0.6697885211   -1.1840788065   -0.6718172014
H        1.3571013738   -1.5709774029    1.2951284198
H        2.7739709503   -2.4621767602    0.6260613140
H        0.3171230110   -3.3807702694   -0.0487172287
H        1.5648565386   -3.1624368838   -1.2984159478
23   

C        5.6982336887    1.7455404184    0.0598954923
C        4.8558402643    1.9827861918   -1.0259100604
C        5.3937701955    0.7217344445    0.9566705782
C        3.7135819957    1.1960431672   -1.2138379133
C        4.2508221851   -0.0638896561    0.7666789801
C        3.3840991549    0.1506362763   -0.3256557798
C        1.2388427288   -0.5676933341   -1.4956083399
C        2.1803592564   -0.6780998488   -0.5108310367
C        0.1372350758   -1.5646059266   -1.3136677961
C        1.8152727150   -1.8086268234    0.4413892663
C        0.8662723335   -2.6111427264   -0.4611771510
H        6.5831532291    2.3543269238    0.2071849035
H        5.0857210023    2.7783965370   -1.7253978830
H        6.0427374195    0.5350088107    1.8047048017
H        3.0810588383    1.4078358372   -2.0658336153
H        4.0491944727   -0.8405460906    1.4924965402
H        1.2784458531    0.1323612136   -2.3208101486
H       -0.2273347359   -1.9807280243   -2.2580989021
H       -0.6842304873   -1.1080337146   -0.7516742610
H        1.2848831383   -1.4047124336    1.3096921074
H        2.6677657089   -2.4195907867    0.7524787693
H        0.1927126908   -3.2742938633    0.0908217628
H        1.4809518118   -3.2184532477   -1.1344121290
