18   

C        4.6331489451    1.3459722713    0.7538183131
C        5.8139907298    1.1162717015    0.0578439422
C        3.5008874128    0.5758692131    0.4819786556
C        5.8525191938    0.1176163775   -0.9129831305
C        3.5148812075   -0.4449182471   -0.4880718959
C        4.7243040963   -0.6614947028   -1.1988640430
C        2.2836726517   -1.2595635898   -0.7409971179
C        0.9255132126   -0.7892422181   -0.2311503335
O        2.3102354744   -2.3131859061   -1.3628699842
O        4.8394502829   -1.6001087690   -2.1827803889
H        4.5933087683    2.1217186391    1.5103739242
H        6.6964253984    1.7112887774    0.2677202722
H        2.6063407838    0.7855760741    1.0569106647
H        6.7762154673   -0.0470308814   -1.4536462301
H        0.7670969580    0.2586429620   -0.4992966863
H        0.8758648837   -0.9036684290    0.8547637333
H        0.1296915349   -1.3874177925   -0.6844089384
H        5.7506974128   -1.6457513742   -2.5119243505
18   

C        4.6560720157    1.3455003102    0.7980864457
C        5.8087066484    1.1619622606    0.0407734273
C        3.5350944513    0.5453601376    0.5677991315
C        5.8294911226    0.1814569109   -0.9507644298
C        3.5390812337   -0.4554416673   -0.4197620245
C        4.7108291736   -0.6248424835   -1.1941939605
C        2.3294741382   -1.3189268933   -0.6179731070
C        0.9406437363   -0.7750285697   -0.3057240325
O        2.4123600260   -2.4711546229   -1.0185709282
O        4.7846255352   -1.5399450430   -2.2039744481
H        4.6309738304    2.1060787067    1.5704842536
H        6.6827894578    1.7791407501    0.2191878709
H        2.6587921237    0.7057303483    1.1858788038
H        6.7286194127    0.0543171045   -1.5406950563
H        0.8585711251    0.2596013388   -0.6492616013
H        0.7583991639   -0.8184455269    0.7710678262
H        0.1829331346   -1.3739966454   -0.8189725990
H        5.6888866235   -1.5978301549   -2.5507692874
18   

C        4.7236059332    1.2900805622    0.8579609841
C        5.8289615971    1.1403998498    0.0240820531
C        3.5968832321    0.4855203685    0.6732469358
C        5.7968166433    0.1891052333   -0.9967346153
C        3.5526894013   -0.4797736068   -0.3443829146
C        4.6707240940   -0.6193333863   -1.1921514469
C        2.3474367075   -1.3659700565   -0.4960315700
C        0.9502040426   -0.7750504075   -0.3656893850
O        2.4567350047   -2.5681761037   -0.6810882383
O        4.6741182545   -1.5111449961   -2.2252946216
H        4.7408017296    2.0260545667    1.6540197985
H        6.7074984761    1.7604682409    0.1669974445
H        2.7546132202    0.6093642786    1.3450197482
H        6.6581163357    0.0867099523   -1.6450193309
H        0.8937596573    0.1644800033   -0.9218804530
H        0.7197862006   -0.5888421929    0.6860968918
H        0.2119787156   -1.4706907182   -0.7747283393
H        5.5609876020   -1.5831985385   -2.6129035189
18   

C        4.7769615817    1.2316690552    0.9525418303
C        5.8308166170    1.1371717509    0.0451625809
C        3.6523811039    0.4162228940    0.8024124374
C        5.7505627658    0.2283879309   -1.0123179307
C        3.5638512259   -0.4991184923   -0.2538192506
C        4.6258029056   -0.5893715925   -1.1706774999
C        2.3643005783   -1.4049516050   -0.3769963154
C        0.9631906400   -0.8087623535   -0.4041808916
O        2.4840695210   -2.6188476484   -0.3551165292
O        4.5692326171   -1.4487952434   -2.2294476366
H        4.8335867789    1.9317161287    1.7785918425
H        6.7073851456    1.7655606173    0.1612313464
H        2.8511565383    0.4895706455    1.5296132222
H        6.5719454658    0.1659714044   -1.7151801177
H        0.7939805934   -0.3288131862   -1.3717155092
H        0.8460017909   -0.0657395119    0.3877131307
H        0.2178471760   -1.5966133417   -0.2633208786
H        5.4326239513   -1.5044312516   -2.6700832862
18   

C        4.8386256891    1.1837746342    1.0318077381
C        5.8391247933    1.1234480440    0.0622276105
C        3.7104653072    0.3667376636    0.9204153735
C        5.7020285634    0.2466483640   -1.0169377418
C        3.5680907327   -0.5143591444   -0.1557819405
C        4.5729332752   -0.5718901796   -1.1338143947
C        2.3581691156   -1.4159331338   -0.2556184048
C        0.9906648803   -0.8060595580   -0.5242994891
O        2.4380934431   -2.6069932263   -0.0090216900
O        4.4535331527   -1.4055747884   -2.2079335583
H        4.9388034590    1.8590087487    1.8741959499
H        6.7180227945    1.7535687581    0.1470482880
H        2.9441390715    0.4108631875    1.6870672263
H        6.4818007292    0.2098620501   -1.7673925872
H        0.9020942812   -0.5743589279   -1.5889995654
H        0.8687358949    0.1145000948    0.0517291455
H        0.2026521565   -1.5106231335   -0.2442687505
H        5.2844428500   -1.4338335633   -2.7101019653
18   

C        4.9142367420    1.1369593008    1.1193396151
C        5.8512057815    1.1056343618    0.0868139540
C        3.7790521339    0.3245279131    1.0545416343
C        5.6429454396    0.2631489679   -1.0082885091
C        3.5701342767   -0.5278990587   -0.0328433599
C        4.5065762724   -0.5506182517   -1.0771576596
C        2.3326806703   -1.3957109205   -0.1114142168
C        1.0784384639   -0.8460171406   -0.7723217054
O        2.3184521221   -2.5209620057    0.3569035494
O        4.3134659638   -1.3497972445   -2.1669313402
H        5.0674404834    1.7880053958    1.9727148002
H        6.7346539458    1.7333022238    0.1344140403
H        3.0568450012    0.3492429856    1.8638800154
H        6.3722999603    0.2506648886   -1.8085870967
H        1.2779996897   -0.6567865214   -1.8303911462
H        0.7866790338    0.0903337411   -0.2900631134
H        0.2598379602   -1.5659177503   -0.6856029954
H        5.1000017039   -1.3407320368   -2.7372606577
18   

C        4.9701237101    1.0775134022    1.1664757532
C        5.8557072837    1.0796482324    0.0891757381
C        3.8243295764    0.2788919426    1.1243309099
C        5.5867961975    0.2831552744   -1.0270884465
C        3.5543983572   -0.5279086104    0.0145702431
C        4.4399971253   -0.5176555506   -1.0743652667
C        2.2910481144   -1.3567723676   -0.0306313630
C        1.1372970486   -0.9255125729   -0.9244367563
O        2.1822206524   -2.3746476185    0.6332516641
O        4.1962938101   -1.2792286906   -2.1808200760
H        5.1704861493    1.6926066761    2.0365915632
H        6.7469362850    1.6973332947    0.1191521288
H        3.1399477820    0.2782805263    1.9664977368
H        6.2787044813    0.2955176851   -1.8599786475
H        1.4640942180   -0.9007999259   -1.9669947860
H        0.8001093493    0.0722169324   -0.6322959956
H        0.3044954411   -1.6277968905   -0.8292821350
H        4.9509530106   -1.2383923484   -2.7917704174
18   

C        5.0275439018    1.0331201518    1.1988496080
C        5.8693797219    1.0699347308    0.0873066220
C        3.8679040532    0.2546136141    1.1683375815
C        5.5444626032    0.3277478935   -1.0519108067
C        3.5428392847   -0.4978245275    0.0325380724
C        4.3838304387   -0.4537561858   -1.0906134481
C        2.2553888184   -1.2841796603    0.0325155930
C        1.1591130211   -0.9687913329   -0.9756946669
O        2.0621335897   -2.1526924064    0.8700791312
O        4.0927668669   -1.1675913211   -2.2168892385
H        5.2720953449    1.6059341965    2.0863599372
H        6.7711739778    1.6724442221    0.1090975610
H        3.2161624139    0.2267322636    2.0359150257
H        6.2053684912    0.3665630490   -1.9088114578
H        1.4157840950   -1.3922636274   -1.9496847548
H        1.0486531742    0.1141994391   -1.0734579788
H        0.2091335483   -1.3948461681   -0.6416951294
H        4.8195655682   -1.0957418463   -2.8582405679
18   

C        5.0238361585    0.8999921226    1.2659797186
C        5.8416193719    0.9702155096    0.1386765412
C        3.8345499052    0.1689903836    1.2190311664
C        5.4646539007    0.3073214435   -1.0328082238
C        3.4536816969   -0.5034781805    0.0479737210
C        4.2747115277   -0.4279478073   -1.0907944022
C        2.1348636819   -1.2265628262    0.0548249545
C        1.1353180390   -1.0626736671   -1.0823056483
O        1.8274942007   -1.9241431991    1.0129604984
O        3.9434472424   -1.0671394389   -2.2504000146
H        5.3089641272    1.4111590530    2.1786758894
H        6.7657755219    1.5371830565    0.1735389213
H        3.2018535083    0.1189402133    2.0999340724
H        6.1098012682    0.3710750105   -1.9001601827
H        1.3051685783   -1.8365743276   -1.8352862182
H        1.2542595452   -0.0793811222   -1.5448702164
H        0.1156783148   -1.1523492684   -0.6980624657
H        4.6519625163   -0.9606613247   -2.9073074438
18   

C        5.0770858465    0.8538708986    1.2798328063
C        5.8709489750    0.9418146409    0.1379458732
C        3.8596999682    0.1714424311    1.2314795050
C        5.4437160849    0.3423583513   -1.0495379892
C        3.4201689122   -0.4326382186    0.0407205300
C        4.2257619877   -0.3456370297   -1.1122392496
C        2.0824425880   -1.1168180306    0.0737127527
C        1.1450248497   -1.1282069368   -1.1274520364
O        1.6868705618   -1.6163858788    1.1214236485
O        3.8643381483   -0.9313093111   -2.2907166389
H        5.4021334456    1.3140638670    2.2062138797
H        6.8168005916    1.4716844488    0.1745174294
H        3.2517159399    0.1132797158    2.1292577760
H        6.0745881369    0.4160727219   -1.9265514091
H        1.3817880989   -1.9792815502   -1.7712182902
H        1.2539718238   -0.2015535573   -1.6969046919
H        0.1083069460   -1.2131502542   -0.7905182733
H        4.5637841493   -0.8096119364   -2.9547052708
18   

C        5.0830098030    0.7998025993    1.3193374715
C        5.8609611239    0.8893164772    0.1682669675
C        3.8307047940    0.1846207058    1.2692036549
C        5.3831668821    0.3571650317   -1.0306945357
C        3.3329246644   -0.3496816010    0.0655402595
C        4.1299665933   -0.2644105302   -1.0982631037
C        1.9669680649   -0.9783938683    0.1183463243
C        1.1066665413   -1.2078730851   -1.1190034500
O        1.4736853313   -1.2520117208    1.2086311714
O        3.7350380053   -0.7845955325   -2.2960990379
H        5.4471614416    1.2072294085    2.2558396320
H        6.8338619433    1.3675769837    0.2066520682
H        3.2452422638    0.1312730883    2.1820301308
H        6.0042437379    0.4300997617   -1.9147457588
H        1.4613437027   -2.0904137982   -1.6576421329
H        1.1513420153   -0.3346742098   -1.7748360159
H        0.0656043824   -1.3687665618   -0.8255543553
H        4.4289762060   -0.6537206702   -2.9640896959
18   

C        5.1368197642    0.7417162871    1.3248051819
C        5.9095594526    0.8403127729    0.1720257120
C        3.8570325086    0.1876727448    1.2623507863
C        5.3966425045    0.3825852003   -1.0421945160
C        3.3234184494   -0.2794076574    0.0452144916
C        4.1148238329   -0.1761445564   -1.1239601939
C        1.9337491216   -0.8573044862    0.0966843421
C        1.2005330882   -1.4089626060   -1.1209809498
O        1.3396025054   -0.8958518344    1.1707119722
O        3.6851390428   -0.6003468642   -2.3470149026
H        5.5263533649    1.0945459968    2.2731866174
H        6.9041073065    1.2707883695    0.2201115297
H        3.2829163698    0.1269120879    2.1818019840
H        6.0121750647    0.4673545150   -1.9290721745
H        1.7624869573   -2.2430102268   -1.5489829951
H        1.0763610948   -0.6226348492   -1.8699042304
H        0.2104204244   -1.7704839618   -0.8294344730
H        4.3713632660   -0.4426378070   -3.0171390423
18   

C        5.1399417172    0.6652486244    1.3459473917
C        5.9096647938    0.7742043501    0.1910281902
C        3.8354123420    0.1734434769    1.2713793555
C        5.3676157731    0.3938528387   -1.0379942355
C        3.2784060294   -0.2209447857    0.0400085805
C        4.0604104990   -0.1001400396   -1.1308297707
C        1.8700857630   -0.7495810726    0.0729884152
C        1.2736310101   -1.6023569290   -1.0409367843
O        1.1817370469   -0.5623994570    1.0720154821
O        3.5850170491   -0.4302229302   -2.3663127585
H        5.5512228112    0.9613322681    2.3044992389
H        6.9234472927    1.1558848530    0.2485400062
H        3.2594731928    0.0975902955    2.1886606211
H        5.9783432713    0.4912400300   -1.9268868947
H        2.0021428696   -2.3446657737   -1.3768483334
H        0.9848882431   -0.9648484620   -1.8805892204
H        0.3865907904   -2.1271237946   -0.6754386342
H        4.2577060341   -0.2491428659   -3.0442430715
18   

C        4.6333768043    1.9329423975    0.1016786754
C        5.7639059166    1.1271494206   -0.0185696759
C        3.3673870202    1.3994544985   -0.1487914753
C        5.6227471422   -0.2114806247   -0.3929185787
C        3.2150583195    0.0531707736   -0.5233993714
C        4.3596343191   -0.7594388727   -0.6478087672
C        1.8128965991   -0.4423375250   -0.7404684171
C        1.3901683254   -1.8645638031   -0.3936952580
O        0.9522594038    0.3377799710   -1.1334834336
O        4.2780505961   -2.0667811242   -1.0307557825
H        4.7339946720    2.9734952093    0.3893265186
H        6.7477675890    1.5406581420    0.1757534998
H        2.4961276667    2.0397654542   -0.0490806454
H        6.5116931751   -0.8227483799   -0.4862598655
H        1.9515961853   -2.2216958289    0.4735346095
H        1.5804916020   -2.5231804391   -1.2450594315
H        0.3233529914   -1.8887812389   -0.1552789749
H        5.1679977161   -2.4495712067   -1.1106413098
18   

C        4.6038665140    1.9101859971    0.1632565054
C        5.7455798874    1.1228543250    0.0179767484
C        3.3485204632    1.3794519201   -0.1423504704
C        5.6254972806   -0.1946666468   -0.4332675941
C        3.2220406354    0.0596335647   -0.6014095864
C        4.3721697934   -0.7365978250   -0.7421821009
C        1.8346911296   -0.4603524828   -0.8603795496
C        1.3845613835   -1.8153210665   -0.3307934602
O        1.0270533710    0.2333182828   -1.4650992017
O        4.2955817338   -2.0249552725   -1.1863185266
H        4.6882541898    2.9331521733    0.5125742168
H        6.7213269787    1.5335920142    0.2545024665
H        2.4634031312    1.9974366796   -0.0263277981
H        6.5209616284   -0.7939295172   -0.5410021952
H        1.9340128627   -2.0605328654    0.5818684960
H        1.5752747692   -2.5855253780   -1.0825680213
H        0.3151880742   -1.7905127526   -0.1045750828
H        5.1867920605   -2.4005922839   -1.2837860339
18   

C        4.5677681908    1.8358735759    0.2279250154
C        5.7211097756    1.0771153259    0.0291872374
C        3.3209929032    1.3122003974   -0.1228594898
C        5.6201360168   -0.2049570364   -0.5187118849
C        3.2153089642    0.0315659743   -0.6802449048
C        4.3744688323   -0.7369887963   -0.8717092375
C        1.8424448056   -0.5069535345   -0.9982155475
C        1.3227360002   -1.7549967661   -0.2980266547
O        1.1161397421    0.0785887642   -1.7873617398
O        4.3077430624   -1.9915240213   -1.4050437879
H        4.6371519499    2.8311649722    0.6523984840
H        6.6905323519    1.4820475333    0.2993330275
H        2.4257928361    1.9064027672    0.0313098938
H        6.5229384824   -0.7844249191   -0.6661799695
H        1.5658834353   -1.7084864821    0.7665507862
H        1.7834346237   -2.6454578844   -0.7323375486
H        0.2375703550   -1.8244699340   -0.4126316412
H        5.2019927983   -2.3428405365   -1.5520979760
18   

C        4.6407452315    1.8267863577    0.3526211920
C        5.8060269159    1.0973514957    0.1184316487
C        3.4030623344    1.3038490689   -0.0309010369
C        5.7247281048   -0.1547731127   -0.4966319602
C        3.3155562498    0.0559228380   -0.6556509592
C        4.4872822317   -0.6831423637   -0.8816549468
C        1.9654372511   -0.5117718287   -1.0299057302
C        1.3704529862   -1.6467049678   -0.2089597842
O        1.3447822698   -0.0803508760   -1.9876716388
O        4.4351908337   -1.9127836193   -1.4723311287
H        4.6941747727    2.7990208529    0.8295827277
H        6.7687040859    1.5009332751    0.4135542532
H        2.4994924153    1.8767642473    0.1506253769
H        6.6351819532   -0.7148092813   -0.6699234031
H        1.2538521315   -1.3262848483    0.8294240874
H        2.0321274481   -2.5158532093   -0.2421390328
H        0.3926798850   -1.9285704385   -0.6093690525
H        5.3327484856   -2.2407705813   -1.6491175145
18   

C        4.6248892579    1.7745558783    0.4295401876
C        5.8108742083    1.0983048272    0.1447064129
C        3.4005361016    1.2315423130    0.0308123680
C        5.7631400270   -0.1218561925   -0.5345104939
C        3.3466797739    0.0168816565   -0.6579505931
C        4.5387635985   -0.6692658365   -0.9339328864
C        2.0198763456   -0.5797356977   -1.0753633099
C        1.2887905341   -1.5108245982   -0.1210727542
O        1.5206570610   -0.3175839679   -2.1559872953
O        4.5151575224   -1.8730340399   -1.5773386365
H        4.6524069060    2.7216788735    0.9565907571
H        6.7633749262    1.5175501501    0.4507927063
H        2.4818685288    1.7654947011    0.2502824150
H        6.6885635946   -0.6432196446   -0.7451353735
H        1.1277902306   -1.0074188517    0.8355409401
H        1.8905379687   -2.4085653936    0.0435623083
H        0.3221831768   -1.8001805480   -0.5427703423
H        5.4178808163   -2.1576901403   -1.7965585981
18   

C        4.6013855892    1.6757170152    0.5019553844
C        5.8138783822    1.0740237509    0.1664643514
C        3.3982152900    1.0905254321    0.0986739630
C        5.8143188525   -0.1140581982   -0.5688152171
C        3.3916856427   -0.0971020480   -0.6391016682
C        4.6117914234   -0.7049138617   -0.9729664894
C        2.0871838922   -0.7101778706   -1.0964170613
C        1.1356208930   -1.2997710592   -0.0663160776
O        1.7301550443   -0.6361832941   -2.2595425139
O        4.6386702083   -1.8760920006   -1.6734220765
H        4.5922985727    2.5995605287    1.0694279133
H        6.7500530073    1.5271054022    0.4746889036
H        2.4605692368    1.5735497301    0.3525743943
H        6.7604453649   -0.5765525170   -0.8208543508
H        1.0916674649   -0.6580175819    0.8170443463
H        1.4931194697   -2.2895003988    0.2299046408
H        0.1322827232   -1.3936052008   -0.4909322768
H        5.5465804272   -2.0886072079   -1.9453020181
18   

C        4.5873769312    1.5891787267    0.5710029993
C        5.8160857197    1.0573665468    0.1832782587
C        3.4013773660    0.9691332496    0.1695989583
C        5.8506140511   -0.0972987711   -0.6016725955
C        3.4262035409   -0.1879580558   -0.6189376908
C        4.6666469864   -0.7254584373   -1.0048190460
C        2.1378869441   -0.8202344679   -1.0829247623
C        1.0683738678   -1.1964377013   -0.0661122731
O        1.8879807669   -0.9476320896   -2.2702253857
O        4.7369425920   -1.8663150744   -1.7506792030
H        4.5521594516    2.4877255968    1.1768116674
H        6.7387814503    1.5386786756    0.4893626897
H        2.4546726665    1.4086709743    0.4640784144
H        6.8099936899   -0.5059993871   -0.8934524246
H        0.9027597306   -0.3783767897    0.6383451544
H        1.3913749409   -2.0829372811    0.4860611654
H        0.1274385708   -1.4194568951   -0.5769826813
H        5.6446561222   -2.0152492298   -2.0614429581
18   

C        4.5896341856    1.4929910375    0.6481590483
C        5.8229804639    1.0375991584    0.1887725635
C        3.4169433033    0.8414435645    0.2592721180
C        5.8756164106   -0.0743788483   -0.6531175979
C        3.4536729761   -0.2734179294   -0.5920953886
C        4.7060734352   -0.7363167817   -1.0453527507
C        2.1758319672   -0.9312762710   -1.0345160578
C        1.0531048922   -1.1592907073   -0.0315612628
O        1.9925979962   -1.2542376615   -2.1979606306
O        4.8118148543   -1.8395187263   -1.8419023313
H        4.5398555378    2.3567566943    1.3016830384
H        6.7356600864    1.5434717867    0.4851596344
H        2.4673310194    1.2240328311    0.6168936675
H        6.8402144919   -0.4256924749   -0.9976819237
H        0.5363877554   -0.2181179431    0.1714439701
H        1.4657302196   -1.5555581440    0.9000846711
H        0.3356775583   -1.8805301304   -0.4332036780
H        5.7172439603   -1.9336580165   -2.1785108655
18   

C        4.5826632235    1.4237068813    0.7108281400
C        5.8176382502    1.0461818461    0.1930186974
C        3.4274337081    0.7374722381    0.3308361422
C        5.8899833737   -0.0242298157   -0.6980375651
C        3.4775569990   -0.3374059328   -0.5740333023
C        4.7395327125   -0.7229812841   -1.0840154817
C        2.2133872515   -1.0303569648   -0.9864765866
C        1.0264260504   -1.0897586101   -0.0326455042
O        2.0871653499   -1.5527736810   -2.0846796626
O        4.8844434278   -1.7840943566   -1.9299149913
H        4.5174260655    2.2542804572    1.4048018501
H        6.7168346553    1.5792299106    0.4829621051
H        2.4800889551    1.0673826322    0.7423462226
H        6.8577378383   -0.3155375578   -1.0868881476
H        0.4810626005   -0.1429473040   -0.0592291538
H        1.3745462427   -1.2829992371    0.9855318780
H        0.3512048188   -1.8974028384   -0.3294582259
H        5.7934630114   -1.8355860137   -2.2650856759
18   

C        4.6207900389    1.3814591164    0.7150207698
C        5.8377373859    1.0479811126    0.1324739446
C        3.4647988220    0.6795402156    0.3686603171
C        5.8910278864    0.0068742990   -0.7919492469
C        3.4892121383   -0.3712249734   -0.5686232400
C        4.7405654463   -0.7083132955   -1.1476940091
C        2.2250232610   -1.0910941863   -0.9251415909
C        0.9827395178   -0.9537662128   -0.0512911545
O        2.1364666913   -1.8138890230   -1.9086446949
O        4.8848073235   -1.7305616651   -2.0401900136
H        4.5697222917    2.1894924985    1.4362836871
H        6.7377644619    1.5924497351    0.3975956454
H        2.5379597975    0.9820618822    0.8421447983
H        6.8462522175   -0.2483905323   -1.2335672482
H        0.5472085921    0.0407830379   -0.1775933920
H        1.2438554254   -1.1115396755    0.9984647921
H        0.2392606995   -1.7023745803   -0.3401064142
H        5.7951709398   -1.7736718323   -2.3721084605
18   

C        4.6296201193    1.3631536735    0.7326776702
C        5.8322206780    1.0850063481    0.0954469159
C        3.4864214599    0.6250096212    0.4213919426
C        5.8829987979    0.0661348198   -0.8527034680
C        3.5073892624   -0.4113221858   -0.5332159435
C        4.7452474031   -0.6839004988   -1.1766033289
C        2.2589105601   -1.1798849009   -0.8387197265
C        0.9501179943   -0.8554549131   -0.1252594403
O        2.2285397163   -2.0876898648   -1.6594186106
O        4.8890443198   -1.6621162588   -2.1171690576
H        4.5801025630    2.1545147954    1.4723126451
H        6.7226535257    1.6565268613    0.3347956313
H        2.5753353128    0.8835827931    0.9479434324
H        6.8262915310   -0.1410744877   -1.3425142059
H        0.6576814907    0.1772124376   -0.3326085286
H        1.0667094415   -0.9982212796    0.9522097790
H        0.1566413499   -1.5196081133   -0.4802675868
H        5.8023436721   -1.6989123892   -2.4413937803
