71

C      3.67478   -2.54139   -4.22590
C      3.80498   -3.01291   -2.91424
C      2.78359   -1.49624   -4.49118
C      7.99839   -6.78225   -5.24319
C      8.33235   -5.44127   -5.45085
C      3.04915   -2.45268   -1.88363
C      2.04347   -0.92116   -3.45474
C      0.39858   -3.79114    0.79811
C     -0.12442   -3.41925   -1.51752
C     -1.20556   -1.02618    1.48890
C      0.06275   -5.13559    0.66392
C     -0.48304   -4.76042   -1.66336
C     -1.75146   -0.39855    2.60806
C      6.67497   -7.10810   -4.94767
C      0.37605    0.69540    2.99229
C      7.32047   -4.48358   -5.34419
C      0.32740   -2.90541   -0.29221
C      2.15594   -1.39517   -2.13576
C      0.11936   -0.79654    1.08710
C      0.92311    0.07146    1.86870
C     -0.38461   -5.63177   -0.56882
C     -0.95433    0.47133    3.36126
C      5.72856   -6.07469   -4.86895
C      0.66332   -1.46726   -0.12467
C      1.40029   -0.76176   -1.02537
C      2.37235    0.29793    1.50258
C      1.53995    0.74174   -0.86903
C      2.55699    1.13646    0.22088
C      4.29946   -6.37375   -4.51851
C      0.62132   -8.65848   -1.61675
C      1.97163   -7.93916   -1.48416
C     -0.58588   -7.73819   -1.77575
C      2.35000   -7.14030   -2.73297
N      6.04617   -4.78226   -5.05783
O      4.84962   -8.14954   -2.56241
O     -1.42053    1.12401    4.47852
O     -0.76924   -6.95008   -0.58922
S      4.16905   -6.79384   -2.70715
H      4.28228   -2.98335   -5.00988
H      4.51901   -3.80242   -2.69760
H      2.67135   -1.12072   -5.50571
H      8.75577   -7.55938   -5.30515
H      9.34910   -5.13943   -5.68537
H      3.15469   -2.82349   -0.86802
H      1.35554   -0.10790   -3.67410
H      0.72827   -3.41934    1.76448
H     -0.21730   -2.75341   -2.36961
H     -1.82235   -1.70712    0.90924
H      0.12959   -5.81876    1.50584
H     -0.87213   -5.10252   -2.61700
H     -2.78579   -0.58606    2.89287
H      6.37124   -8.13049   -4.74848
H      0.98041    1.35840    3.60581
H      7.54078   -3.42746   -5.49231
H      2.89942    0.77340    2.33548
H      2.84347   -0.67833    1.34205
H      1.84202    1.19423   -1.81755
H      0.56654    1.16651   -0.60156
H      2.43140    2.20300    0.44333
H      3.58147    1.00082   -0.14478
H      3.65976   -5.51180   -4.71606
H      3.93094   -7.26283   -5.03789
H      0.64932   -9.33765   -2.47992
H      0.46283   -9.28092   -0.72928
H      2.74639   -8.69386   -1.31457
H      1.96306   -7.28205   -0.60864
H     -1.49960   -8.32849   -1.89447
H     -0.48369   -7.10428   -2.66020
H      2.15294   -7.72069   -3.64139
H      1.84285   -6.17259   -2.79722
H     -2.34826    0.87831    4.62147
