60

C      5.25781    2.77546    1.15176
C      3.92405    2.88265    0.77776
C     -4.03798    4.40527   -5.76255
C      6.26815    3.45634    0.45480
C     -3.21586    3.80779   -4.80355
C      4.57563    4.37478   -1.02742
C     -4.35708    5.00338   -3.01731
C      3.57765    3.69123   -0.32413
C     -5.02486    5.30981   -5.35008
C     -5.17000    5.59831   -3.98873
C      5.91730    4.25798   -0.63938
C     -3.37165    4.10193   -3.44126
C      0.03590    3.66594   -0.90711
C      0.47057    4.50026   -1.90491
C      2.17579    3.80156   -0.71578
C     -5.40230    5.29631   -8.50994
C     -6.29641    6.58936   -3.78261
C     -6.46463    7.20175   -5.19234
C     -6.04290    6.08003   -6.18040
C     -0.12445    5.25904   -3.04379
C     -6.09794    8.01032   -9.58848
C      8.19021    4.87817   -1.05448
C     -1.32919    3.16784   -0.52336
C     -6.54258    7.54260   -8.19693
C     -2.50649    3.83719   -1.21525
C     -5.56045    6.54326   -7.56566
N      1.13673    3.23644   -0.16480
O     -6.47773    4.68517   -8.76327
O     -4.22988    5.03374   -8.90383
O      1.84992    4.58834   -1.78139
O      6.81393    4.96978   -1.39696
O     -2.48445    3.46628   -2.58479
H      5.53057    2.15251    2.00011
H      3.14089    2.35683    1.31333
H     -3.89717    4.19918   -6.82094
H      7.30002    3.35220    0.77040
H     -2.43452    3.11036   -5.09578
H      4.32761    4.99937   -1.87903
H     -4.49662    5.24463   -1.96774
H     -7.21177    6.06000   -3.47890
H     -6.08215    7.33396   -3.00601
H     -7.47774    7.57155   -5.37619
H     -5.77497    8.04933   -5.30008
H     -6.90485    5.42185   -6.36508
H      0.55699    6.05998   -3.34304
H     -0.30139    4.61191   -3.90798
H     -1.08474    5.70280   -2.78115
H     -6.02056    7.15933  -10.27108
H     -6.81018    8.73041  -10.01330
H     -5.11293    8.49192   -9.54676
H      8.71984    5.50524   -1.77355
H      8.55690    3.84668   -1.13437
H      8.37845    5.25255   -0.03985
H     -1.37797    2.08820   -0.70933
H     -1.44215    3.29852    0.55957
H     -6.66702    8.42091   -7.54698
H     -7.52000    7.05187   -8.27669
H     -3.44616    3.50898   -0.74808
H     -2.44693    4.92937   -1.10695
H     -4.57736    7.02189   -7.45757
