71

C      3.28280   -0.42213   -4.51492
C      3.69709   -0.99302   -3.30587
C      2.06921    0.27144   -4.56599
C      5.45946  -16.63679    0.41484
C      4.43507  -17.54976    0.67860
C      2.90181   -0.87915   -2.16546
C      1.27971    0.39232   -3.41959
C      1.31871   -3.42283    0.39910
C      0.49420   -3.03387   -1.82442
C     -1.22155   -1.67886    1.53268
C      1.58666   -4.75860    0.08108
C      0.74505   -4.35918   -2.15507
C     -1.87494   -1.47669    2.74773
C      5.13920  -15.43724   -0.21913
C     -0.33734    0.33023    3.23757
C      3.13560  -17.21364    0.29009
C      0.78712   -2.53052   -0.54190
C      1.67437   -0.19182   -2.20259
C     -0.13834   -0.87981    1.13545
C      0.31487    0.13269    2.01823
C      1.30127   -5.23250   -1.20628
C     -1.43058   -0.46169    3.60321
C      3.80213  -15.18909   -0.56731
C      0.52305   -1.11346   -0.17673
C      0.83869   -0.06100   -0.98172
C      1.51617    0.97420    1.65246
C      0.37888    1.33583   -0.60394
C      1.24018    1.96978    0.50705
C      3.39947  -13.90189   -1.23119
C      2.22465   -8.78141   -1.42406
C      2.84451   -9.85327   -0.51922
C      2.08517   -7.44668   -0.70574
C      2.96667  -11.19558   -1.23682
N      2.81479  -16.06344   -0.31770
O      2.60401  -12.59653    1.03572
O     -2.02118   -0.20498    4.81853
O      1.51592   -6.51789   -1.62938
S      3.63395  -12.46280   -0.06981
H      3.90002   -0.51340   -5.40503
H      4.64255   -1.52724   -3.25175
H      1.73552    0.71746   -5.49978
H      6.48590  -16.85486    0.69822
H      4.63277  -18.49726    1.17147
H      3.22629   -1.32952   -1.23234
H      0.33260    0.92298   -3.47781
H      1.53500   -3.06839    1.40340
H      0.06351   -2.37300   -2.56989
H     -1.56116   -2.47230    0.87300
H      2.00746   -5.40915    0.83946
H      0.51438   -4.74396   -3.14432
H     -2.72000   -2.10406    3.02772
H      5.90710  -14.69914   -0.43644
H      0.00228    1.09747    3.92842
H      2.31031  -17.89912    0.47632
H      1.87879    1.51340    2.53306
H      2.32204    0.30337    1.33387
H      0.39346    1.99071   -1.47929
H     -0.65704    1.28929   -0.25173
H      0.71646    2.85380    0.89050
H      2.19826    2.31318    0.09959
H      4.01301  -13.68524   -2.11227
H      2.34142  -13.93955   -1.49865
H      2.83749   -8.63566   -2.32126
H      1.23330   -9.10296   -1.76307
H      2.23001   -9.99335    0.37660
H      3.83543   -9.52603   -0.17903
H      3.06565   -7.08401   -0.36680
H      1.43583   -7.54808    0.17456
H      1.98734  -11.55330   -1.57185
H      3.64696  -11.14106   -2.09445
H     -2.75812   -0.82310    4.94631
