39

C     -2.77137   -0.09616    0.40979
C     -3.48454    0.06223    1.60783
C     -2.28177   -1.34913    0.02584
C     -3.72571   -1.02978    2.45153
C     -5.38472   -8.24827   -0.17176
C     -2.52422   -2.43927    0.85942
C     -4.23983   -7.83815    0.58946
C     -3.23866   -2.26314    2.04141
C     -5.53603   -9.60277   -0.01962
C     -3.70937   -8.98757    1.19275
C     -2.09497   -3.84615    0.61645
C     -3.82466   -6.44015    0.67994
C     -6.56840  -10.52164   -0.59306
C     -2.53040   -9.19374    2.09771
C     -4.30513  -11.42835    1.22654
C     -2.61722   -6.07457    1.57341
N     -4.50788  -10.04522    0.81936
N     -2.47108   -4.63761    1.70527
O     -1.47983   -4.26283   -0.34961
O     -4.39665   -5.54688    0.06476
O     -2.58835   -3.77517    4.15606
O     -4.73872   -4.32964    2.97346
S     -3.37399   -3.81068    2.92216
H     -2.59888    0.76757   -0.22607
H     -3.85651    1.04404    1.88669
H     -1.72791   -1.49231   -0.89702
H     -4.27424   -0.91588    3.38145
H     -6.01390   -7.58679   -0.75092
H     -6.13006  -11.30527   -1.22304
H     -7.17010  -11.01246    0.18194
H     -7.25038   -9.94058   -1.21766
H     -2.76119   -8.93056    3.13779
H     -2.19865  -10.23431    2.09234
H     -1.67706   -8.58936    1.78642
H     -3.39491  -11.84531    0.78248
H     -4.23930  -11.50891    2.31495
H     -5.15128  -12.02780    0.89403
H     -1.69888   -6.45510    1.11774
H     -2.70637   -6.51402    2.56858
