27

C      2.13194   -1.24890    0.05986
C      2.86037   -2.48216    2.00176
C      1.00935   -0.80058    0.75668
C      1.74202   -2.03911    2.71585
C      3.11994   -3.91415   -3.24145
C      3.07023   -2.09058    0.67497
C      0.82467   -1.19992    2.08356
C      3.83438   -2.73427   -3.58825
C      3.22637   -4.00169   -1.85896
C      4.04820   -2.15170   -4.95336
C      4.29102   -2.56476   -0.09395
N      4.33697   -2.13262   -2.50788
N      3.98043   -2.94074   -1.45768
N      2.78516   -4.95670   -0.93008
Cl    -0.58993   -0.64435    2.96479
H      2.28113   -0.94937   -0.97421
H      3.57183   -3.14492    2.48977
H      0.28392   -0.14934    0.27912
H      1.58178   -2.34673    3.74441
H      2.59690   -4.59495   -3.90056
H      3.09506   -1.97065   -5.46236
H      4.58490   -1.20340   -4.87332
H      4.63479   -2.82797   -5.58530
H      5.03800   -1.77054   -0.16493
H      4.74869   -3.41775    0.41783
H      2.22304   -5.67156   -1.38039
H      2.25265   -4.54153   -0.16763
