42

C      0.84335   -1.78340    1.72700
C     -0.06111   -2.04307    0.69181
C      0.95080   -2.67572    2.80451
C     -0.87002   -3.18833    0.69546
C     -4.94163   -5.99680    2.82472
C     -3.90227   -7.85952    3.94554
C      0.15541   -3.81513    2.82085
C     -3.96511   -6.99731    2.84647
C     -0.74187   -4.07076    1.77220
C     -5.84049   -5.84440    3.88119
C     -5.75975   -6.68528    5.01633
C     -4.78657   -7.69551    5.01199
C     -2.42061   -5.81739    1.23323
C      0.03379   -4.89180    3.87523
C     -8.16404   -4.73646    5.77711
C     -0.80647   -5.98113    3.17343
C     -8.07733   -5.09215    4.29322
C     -6.93017   -5.24790    6.52028
C     -3.00362   -7.15658    1.68134
N     -1.41861   -5.29423    2.01017
O     -2.87068   -5.23699    0.24356
O     -6.76278   -4.83014    3.76449
O     -6.58634   -6.58469    6.10448
Cl    -4.66134   -8.76066    6.39766
H      1.46112   -0.88993    1.69811
H     -0.14219   -1.34605   -0.13832
H      1.64532   -2.47735    3.61774
H     -1.57215   -3.39096   -0.10132
H     -5.03161   -5.32376    1.97696
H     -3.16419   -8.65490    3.98760
H      1.00007   -5.27950    4.20872
H     -0.48892   -4.50471    4.75764
H     -8.23011   -3.65105    5.91215
H     -9.07700   -5.17935    6.19076
H     -0.16887   -6.79970    2.81854
H     -1.57635   -6.39474    3.82422
H     -8.32852   -6.14474    4.12916
H     -8.75841   -4.47983    3.69783
H     -6.07259   -4.58842    6.35482
H     -7.11052   -5.31560    7.59545
H     -2.21570   -7.86825    1.94455
H     -3.53009   -7.55138    0.80863
