47

C      4.02614    2.37661   -2.51388
C      6.64668    2.67108   -5.12835
C      6.63679    1.39029   -5.69604
C      5.79181    2.95363   -4.06730
C      5.79014    0.40642   -5.19376
C      3.54807   -1.52936   -4.25903
C      2.73303   -2.19183   -3.28639
C      4.92105    1.96907   -3.56245
C      4.91536    0.66545   -4.12087
C      4.04752   -0.40292   -3.64791
C      2.79109   -1.43743   -2.14370
C     -0.05375    1.72701    0.57278
C      0.02110    1.45783   -0.95306
C     -1.45703   -0.31685    1.21107
C      1.09955   -0.46310    1.05855
C     -0.96103   -0.89887   -1.12135
C     -0.11680    0.42161    1.38447
C      0.31441   -0.02387   -1.23310
C     -3.19979   -1.10520   -0.24298
C      2.18590   -1.59351   -0.78743
N      3.31995    2.80338   -1.69108
N     -1.93959   -0.38144   -0.16685
N      1.42911   -0.42833   -0.36748
O      3.59036   -0.34803   -2.35570
H      7.31349    3.43872   -5.50982
H      7.30284    1.15511   -6.52181
H      5.77542    3.94286   -3.62038
H      5.81705   -0.59261   -5.61787
H      3.71048   -1.82675   -5.28646
H      2.16386   -3.10285   -3.41691
H      0.83548    2.28368    0.88654
H     -0.92351    2.34792    0.81117
H     -0.91745    1.73644   -1.43955
H      0.82749    2.05139   -1.38836
H     -1.36364   -1.32875    1.65641
H     -2.22413    0.21013    1.79209
H      1.97356   -0.11130    1.62402
H      0.89165   -1.49226    1.40406
H     -1.45276   -0.91597   -2.10083
H     -0.67683   -1.94755   -0.89723
H     -0.04865    0.66222    2.45229
H      0.67550   -0.11879   -2.26131
H     -3.59490   -1.06042   -1.26330
H     -3.93397   -0.64178    0.42486
H     -3.10775   -2.17198    0.04234
H      1.59819   -2.53192   -0.79816
H      2.98991   -1.74260   -0.05439
