39

C      2.04653   -7.93529    2.59176
C      2.24733   -8.31844    1.25649
C      0.83737   -7.36265    3.00019
C      1.24317   -8.13855    0.29628
C     -5.67512   -8.64848   -0.70172
C     -0.16302   -7.17997    2.04620
C     -4.94194   -7.94580    0.31333
C      0.05600   -7.56139    0.72633
C     -5.73043   -9.97221   -0.34901
C     -4.58760   -8.88297    1.29146
C     -1.50641   -6.58175    2.28246
C     -4.64574   -6.52238    0.18779
C     -6.33536  -11.13601   -1.06791
C     -3.91660   -8.75324    2.62188
C     -4.94883  -11.33755    1.63193
C     -3.48182   -5.85557    0.94184
N     -5.06430  -10.10309    0.87296
N     -2.26955   -6.66062    1.11885
O     -1.90199   -6.09871    3.33296
O     -5.29378   -5.78705   -0.55584
O     -1.19372   -6.11330   -1.18679
O     -1.96276   -8.48226   -0.75304
S     -1.39097   -7.23144   -0.26736
H      2.84269   -8.08617    3.31515
H      3.19470   -8.76014    0.96085
H      0.66271   -7.05895    4.02792
H      1.38937   -8.43466   -0.73794
H     -6.06973   -8.20227   -1.60401
H     -5.58514  -11.88262   -1.35745
H     -7.10191  -11.64642   -0.47189
H     -6.81249  -10.77896   -1.98326
H     -4.45553   -9.31732    3.39102
H     -2.88661   -9.13216    2.60048
H     -3.88087   -7.71787    2.95432
H     -3.94529  -11.43326    2.05245
H     -5.67978  -11.37783    2.44833
H     -5.12147  -12.18734    0.97180
H     -3.80167   -5.57999    1.95102
H     -3.24576   -4.93725    0.39767
