34

C      6.09735    0.74424    2.22221
C      4.85642    0.71580    1.56080
C      6.26196    0.16381    3.47847
C      2.95493   -1.08771    4.35874
C      3.68261   -1.41738    5.47958
C      3.86050   -0.45749    3.42775
C      3.73329    0.10981    2.13344
C      5.13575   -0.42551    4.06341
C      0.92781    0.43429   -0.09345
C      0.49718   -0.66745    0.64183
C      2.48728    0.06651    1.36753
C      0.28670    1.18285   -1.21027
C     -0.69419   -1.57665    0.60246
C     -1.82705   -1.09462   -0.30683
C     -1.34632   -0.72256   -1.71589
N      2.15592    0.86712    0.37424
N      4.99669   -1.03060    5.30219
N      1.49695   -0.87738    1.56855
N     -0.83086    0.63800   -1.81109
O      0.71566    2.27206   -1.58700
H      6.94542    1.21994    1.73763
H      4.75045    1.16169    0.57716
H      7.22397    0.17753    3.98473
H      1.88607   -1.22385    4.26562
H      3.36261   -1.88807    6.39973
H     -0.36750   -2.57097    0.26545
H     -1.08211   -1.71302    1.62017
H     -2.56991   -1.89665   -0.37920
H     -2.32698   -0.22475    0.13105
H     -0.60227   -1.45576   -2.06086
H     -2.18972   -0.77756   -2.40894
H      5.73222   -1.12991    5.98679
H      1.54821   -1.65990    2.20830
H     -1.14032    1.20049   -2.59466
