25

C      3.55572   -0.05613   -2.34230
C      4.86034   -0.51861   -2.50684
C      3.18257    0.46415   -1.10101
C      0.30437   -0.26914    1.17817
C      2.25938   -1.32654    2.07670
C      5.73854   -0.43230   -1.41707
C     -0.30562   -1.52244    1.15732
C      1.62056   -0.15856    1.64779
C      4.13790    0.51917   -0.07634
C      1.54660   -2.52654    1.99941
C      3.80948    1.09335    1.28418
C      2.33607    1.17389    1.69891
N      5.39748    0.07731   -0.23268
N      0.30695   -2.64836    1.55903
O      4.68533    1.47064    2.04058
Br     2.42831   -4.14411    2.56508
H      2.83963   -0.10464   -3.15815
H      5.19691   -0.94106   -3.44929
H      2.16997    0.81828   -0.94305
H     -0.24111    0.60569    0.83393
H      3.27805   -1.31276    2.45007
H      6.76231   -0.79283   -1.50667
H     -1.32739   -1.63770    0.80067
H      1.81460    1.90130    1.06683
H      2.32889    1.56895    2.71852
