21

C      1.80362   -1.53526   -0.21220
C      0.74779   -0.99216    0.52994
C      3.02417   -1.82732    0.39998
C      2.12236   -1.02319    2.52247
C      0.89789   -0.73495    1.89898
C      3.15145   -1.56142    1.76185
C      0.14098    1.26591    3.18586
C     -0.22720   -0.12397    2.71364
N      0.53229    1.58767    4.36982
N      0.00785    2.28448    2.23844
O      0.53925    0.45691    5.24424
F      4.33409   -1.84203    2.36986
H      1.67473   -1.73421   -1.27266
H     -0.20045   -0.77757    0.04285
H      3.85925   -2.24970   -0.15019
H      2.26852   -0.82714    3.58091
H     -1.13471   -0.05241    2.10775
H     -0.44429   -0.74232    3.58564
H      0.32787    2.00689    1.31456
H      0.45034    3.14913    2.53799
H      0.78070    0.86596    6.09003
