29

C      0.09629    1.29120   -5.70581
C     -1.58498    0.12647   -4.46102
C     -0.92115    1.73464   -6.55708
C     -2.51828    0.61401   -5.37267
C     -0.22949    0.46094   -4.62372
C      2.23159   -0.22628   -0.99658
C      3.17145   -0.87733   -0.17385
C      2.32089    1.17451   -1.04634
C      4.14928   -0.19265    0.53108
C      3.32533    1.86416   -0.36551
C      4.25149    1.19928    0.43542
C      0.81008   -0.03497   -3.68509
C      2.26367    0.08171   -4.06754
N     -2.21065    1.40860   -6.41265
N      0.36810   -0.57122   -2.59494
N      1.30667   -1.03244   -1.67117
F      3.10225   -2.22208   -0.07150
F      1.42667    1.90396   -1.74248
F      5.00696   -0.88771    1.29113
F      3.36029    3.19994   -0.47658
Br     5.58807    2.14762    1.38011
H      1.11645    1.61080   -5.89144
H     -1.89342   -0.50386   -3.63476
H     -0.68114    2.38501   -7.39703
H     -3.57069    0.35607   -5.26540
H      2.65903    1.08194   -3.86155
H      2.86305   -0.64416   -3.51550
H      2.38782   -0.11005   -5.13586
H      0.87494   -1.72139   -1.06453
