17   
Generated by ForceBalance from scan.xyz: Frame 1 of 24
C        5.6262816892    1.2308271779    0.5404485124
C        4.4847245862    1.1101227562    1.3325666421
C        5.5865775230    0.6030235921   -0.7069682110
C        3.4805929509   -0.1412801623   -0.2944504344
C        2.2653412990   -0.9438349430   -0.7564198069
C        0.0938963255   -1.7992870980    0.0162748968
N        3.4098058591    0.4268953781    0.9223200191
N        4.5208022019   -0.0839686951   -1.1324109823
N        1.2085264685   -0.8683108704    0.1031493346
O        2.2761174647   -1.5966236896   -1.7940678253
H        6.4981836870    1.7836454303    0.8757423729
H        4.4259551411    1.5689624913    2.3183472287
H        6.4348974675    0.6518793559   -1.3885699838
H       -0.8087350759   -1.3321743050    0.4192238780
H        0.2959741519   -2.7255082841    0.5695601479
H       -0.0700084026   -2.0522121983   -1.0318873658
H        1.3909582760   -0.3929955322    0.9800490652
17   
Generated by ForceBalance from scan.xyz: Frame 2 of 24
C        5.6249940904    1.1728712313    0.5750774743
C        4.4601579515    1.0863265661    1.3366754369
C        5.5862392043    0.5811492882   -0.6902422172
C        3.4397443495   -0.0771327284   -0.3445959348
C        2.2067262624   -0.8277602538   -0.8474902426
C        0.1499764190   -1.8158200957    0.0519855918
N        3.3655241002    0.4629228754    0.8843195118
N        4.5003337731   -0.0428971197   -1.1585649205
N        1.1224711491   -0.7292756939   -0.0149145045
O        2.2379515737   -1.4962303036   -1.8731722090
H        6.5131742924    1.6753909823    0.9450098853
H        4.3978457457    1.5233887361    2.3320326402
H        6.4517230471    0.6093726525   -1.3511088348
H       -0.7946614284   -1.4399239340    0.4535674811
H        0.5088264031   -2.6376035175    0.6853003549
H       -0.0197465520   -2.1998279005   -0.9543549924
H        1.3261651033   -0.2507093144    0.8572364552
17   
Generated by ForceBalance from scan.xyz: Frame 3 of 24
C        5.6076304384    1.0984531492    0.6131034244
C        4.4174123563    1.0581651579    1.3379409743
C        5.5773036220    0.5338609996   -0.6651241482
C        3.3914106136   -0.0227060590   -0.3944696817
C        2.1414605770   -0.7133424919   -0.9428043761
C        0.2356154137   -1.8337659377    0.1091708926
N        3.3073260710    0.4977947983    0.8418785216
N        4.4757471672   -0.0234814779   -1.1779402443
N        1.0394012400   -0.6303455616   -0.1195421268
O        2.1819955352   -1.3648823226   -1.9771969029
H        6.5085167993    1.5478719462    1.0188746864
H        4.3462004465    1.4811023820    2.3387392707
H        6.4626020530    0.5310056505   -1.2998207513
H       -0.7342587367   -1.5524472528    0.5274160736
H        0.7377959939   -2.5257317532    0.7979625086
H        0.0735465435   -2.3398529766   -0.8431126099
H        1.2510994090   -0.1179699737    0.7327176780
17   
Generated by ForceBalance from scan.xyz: Frame 4 of 24
C        5.5834872034    1.0210141808    0.6526704279
C        4.3727207181    1.0102574147    1.3432526943
C        5.5672191594    0.4924047390   -0.6414870711
C        3.3549530435    0.0138516101   -0.4437324885
C        2.0965524630   -0.6223279479   -1.0390621751
C        0.3563408649   -1.8347169905    0.1699965608
N        3.2558409326    0.5065289600    0.8024908085
N        4.4597947614   -0.0069550897   -1.1985539586
N        0.9688645283   -0.5591887761   -0.2321481031
O        2.1507167135   -1.2535657707   -2.0830098975
H        6.4895659972    1.4233127822    1.0947043799
H        4.2892811577    1.4112833401    2.3520452465
H        6.4689790487    0.4723845919   -1.2522411878
H       -0.6277604843   -1.6430552619    0.6052293871
H        0.9767105404   -2.3661367537    0.9039230643
H        0.2292656601   -2.4647659748   -0.7114264584
H        1.1718845014    0.0131464659    0.5847870785
17   
Generated by ForceBalance from scan.xyz: Frame 5 of 24
C        5.5365579296    0.9398212307    0.6964587187
C        4.3054214531    0.9593311083    1.3496487773
C        5.5418681468    0.4381468189   -0.6087553728
C        3.3086278888    0.0382172794   -0.4885897432
C        2.0450765745   -0.5387591889   -1.1332377420
C        0.4922579294   -1.8176687914    0.2295892095
N        3.1882130380    0.5078813829    0.7643532867
N        4.4351837128   -0.0078893517   -1.2101743839
N        0.8938669814   -0.5144804265   -0.3367011061
O        2.1059538216   -1.1169823189   -2.2039807175
H        6.4423418554    1.2998409235    1.1741350542
H        4.2050137210    1.3425825710    2.3637663371
H        6.4611740319    0.3966756090   -1.1916035574
H       -0.4777577546   -1.7074785293    0.7207978232
H        1.2234886307   -2.1906742496    0.9597706427
H        0.3893072267   -2.5454029768   -0.5772670976
H        1.0635131794    0.1241845648    0.4390065304
17   
Generated by ForceBalance from scan.xyz: Frame 6 of 24
C        5.6862911336    0.8491041742    0.7148484450
C        4.5945228658    0.4340734842    1.4795837763
C        5.5649066136    0.7090597460   -0.6691150530
C        3.4732076932   -0.1403160124   -0.4181169773
C        2.2114305401   -0.6838333757   -1.0707955439
C        0.6045218139   -1.4524644922    0.6327699225
N        3.4793831253   -0.0495419106    0.9215798698
N        4.4693617789    0.1999139370   -1.2443846344
N        1.0130814471   -0.4296018645   -0.3593371656
O        2.2218532103   -1.1018024110   -2.2155957505
H        6.5833804114    1.2550369780    1.1719938664
H        4.6090347936    0.4948656872    2.5669033748
H        6.3702341124    1.0066205187   -1.3394251941
H        0.4993508274   -2.4473088489    0.1801186849
H       -0.3541364934   -1.1521232278    1.0632078813
H        1.3445236028   -1.4940959158    1.4333858728
H        0.2983511621   -0.4322525068   -1.0893889875
17   
Generated by ForceBalance from scan.xyz: Frame 7 of 24
C        5.6764375774    0.7996634687    0.7748959689
C        4.4878147629    0.6425908338    1.4884291657
C        5.6338296900    0.4692089637   -0.5817987631
C        3.4250916554   -0.0425459578   -0.4078237914
C        2.1389835418   -0.4602911935   -1.1132484089
C        0.7858910499   -1.5681189620    0.6471162973
N        3.3584858609    0.2226379722    0.9061763317
N        4.5170050447    0.0418093699   -1.1790238506
N        0.9819975161   -0.4736971837   -0.3241707081
O        2.0987422133   -0.5526389619   -2.3311083214
H        6.5875839871    1.1492097379    1.2505563041
H        4.4345731696    0.8578954817    2.5547685789
H        6.5213210305    0.5442357793   -1.2089990712
H        0.7414322178   -2.5502636316    0.1584913056
H       -0.1509046272   -1.3944365723    1.1827281901
H        1.5985250596   -1.5607520826    1.3744475726
H        0.2075668683   -0.4870626760   -0.9877697946
17   
Generated by ForceBalance from scan.xyz: Frame 8 of 24
C        5.6416678015    0.7092154405    0.7319182927
C        4.4254435645    0.7814706651    1.4104825048
C        5.5931511290    0.2319384431   -0.5805611451
C        3.3334435542    0.0226622061   -0.4392564078
C        2.0223997737   -0.2747928847   -1.1577828763
C        0.9016405016   -1.6379179639    0.5984274465
N        3.2669911153    0.4302573983    0.8369663249
N        4.4458994254   -0.1091819153   -1.1750318134
N        0.9155232962   -0.5208717945   -0.3580167420
O        1.9336702372   -0.1045409696   -2.3670675179
H        6.5770968208    0.9966362294    1.2020308843
H        4.3716577444    1.1252849526    2.4425145053
H        6.4997567238    0.1186916018   -1.1736850950
H        0.9429079043   -2.6134695908    0.0968492707
H       -0.0152370485   -1.5818397331    1.1906096148
H        1.7467120560   -1.5469937558    1.2815555192
H        0.1056584009   -0.5528929827   -0.9747600892
17   
Generated by ForceBalance from scan.xyz: Frame 9 of 24
C        5.6055411629    0.6545249975    0.7339704358
C        4.3889816341    0.8565821384    1.3848618447
C        5.5402783562    0.1065388403   -0.5497815754
C        3.2703762023    0.0698102840   -0.4361025658
C        1.9505357009   -0.1562308572   -1.1618071986
C        0.9870365511   -1.6686718102    0.5858883752
N        3.2151618212    0.5533346180    0.8136707733
N        4.3788666009   -0.1799781090   -1.1467362271
N        0.8850644396   -0.5945841398   -0.4066277455
O        1.8345619204    0.1881088872   -2.3326493695
H        6.5531113759    0.8995776533    1.2037505667
H        4.3464685276    1.2666608324    2.3929076171
H        6.4441825712   -0.1074627939   -1.1186234608
H        1.1665556890   -2.6476099477    0.1228201137
H        0.0536486575   -1.7123209698    1.1526030273
H        1.7918085623   -1.4479962963    1.2871211489
H        0.0615887679   -0.6634269559   -0.9992740074
17   
Generated by ForceBalance from scan.xyz: Frame 10 of 24
C        5.5632038067    0.5957812757    0.7155753648
C        4.3529526445    0.9009896562    1.3376003325
C        5.4818047104   -0.0142874880   -0.5386659427
C        3.2134479969    0.0813562329   -0.4549713930
C        1.8903147550   -0.1017547627   -1.1842121877
C        1.0353656780   -1.7000183242    0.5600611720
N        3.1700366812    0.6329621249    0.7667035523
N        4.3126621396   -0.2656949456   -1.1377388898
N        0.8692832701   -0.7018975629   -0.4955860453
O        1.7494318618    0.3663309117   -2.3097470070
H        6.5177944098    0.8113562431    1.1855765065
H        4.3226743643    1.3665232211    2.3216976017
H        6.3785306341   -0.3076971000   -1.0828024272
H        1.3901113229   -2.6636817094    0.1722789647
H        0.0709418232   -1.8536349518    1.0500721418
H        1.7353423389   -1.3330082138    1.3107015512
H        0.0446541990   -0.8011650455   -1.0798881278
17   
Generated by ForceBalance from scan.xyz: Frame 11 of 24
C        5.5717702086    0.5067944798    0.7136897643
C        4.3506270386    0.7751080684    1.3312941990
C        5.5131387570   -0.0409955380   -0.5704737614
C        3.2437974408    0.0341138874   -0.5156272695
C        1.9274415964   -0.1201339478   -1.2626452997
C        1.0468661388   -1.6214878753    0.5741872081
N        3.1785547111    0.5275402767    0.7298688960
N        4.3550875192   -0.2710962394   -1.1988399523
N        0.9278048170   -0.7834120620   -0.6150308670
O        1.7851247022    0.3969618778   -2.3673282857
H        6.5178790411    0.7045721663    1.2080226073
H        4.3030724734    1.1933919904    2.3357291691
H        6.4200816174   -0.3006051016   -1.1149028226
H        2.0366111396   -2.0804185760    0.6267234614
H        0.3091000540   -2.4256850045    0.5130293967
H        0.8816745793   -1.0501046545    1.4928984782
H        0.0616452681   -0.8113592118   -1.1404802966
17   
Generated by ForceBalance from scan.xyz: Frame 12 of 24
C        5.5766032562    0.4961516349    0.7112958311
C        4.3644964238    0.8093117783    1.3259261534
C        5.5007299215   -0.0749240494   -0.5615492125
C        3.2345528033    0.0618493293   -0.5030305232
C        1.9111867606   -0.0672387589   -1.2407611902
C        1.0761207209   -1.6335083108    0.5613567931
N        3.1844268665    0.5820546307    0.7320202386
N        4.3346898731   -0.2870117615   -1.1827267614
N        0.9676476911   -0.8723035108   -0.6778012130
O        1.7309359508    0.5565571207   -2.2832165699
H        6.5288300786    0.6781233389    1.1998865956
H        4.3309029026    1.2479283529    2.3221808514
H        6.3990819638   -0.3687807102   -1.1027524424
H        2.0836150008   -2.0397600126    0.6717108620
H        0.3805249364   -2.4753826677    0.5174649583
H        0.8504561156   -1.0232165625    1.4421399209
H        0.0762982745   -0.8541654188   -1.1603094478
17   
Generated by ForceBalance from scan.xyz: Frame 13 of 24
C        5.5807959256    0.4821633648    0.6988416821
C        4.3815733360    0.8320636799    1.3191885184
C        5.4811841393   -0.1071483305   -0.5638065757
C        3.2198246273    0.0797629286   -0.4869201422
C        1.8862141360   -0.0368945962   -1.2071955407
C        1.0768916418   -1.6434950450    0.5595434041
N        3.1914804361    0.6229228170    0.7386856410
N        4.3046961578   -0.3060605090   -1.1704259573
N        1.0073101846   -0.9669764512   -0.7325068751
O        1.6594874619    0.6680488460   -2.1861761023
H        6.5412094496    0.6509682666    1.1759763890
H        4.3668316025    1.2862364496    2.3088881739
H        6.3679729127   -0.4282137432   -1.1085464173
H        2.0934448499   -1.9945769488    0.7468238117
H        0.4224730882   -2.5181590768    0.5307943660
H        0.7765544520   -0.9924738713    1.3877093197
H        0.1039350090   -0.9240164494   -1.1929094286
17   
Generated by ForceBalance from scan.xyz: Frame 14 of 24
C        5.0855743404    1.5942025832    0.0845118477
C        4.1615695011    1.2857160569    1.0824227745
C        5.1201527500    0.7369503479   -1.0181458509
C        3.4984154365   -0.5524347631   -0.0859146483
C        2.6923236050   -1.8422481740   -0.1369160184
C        0.5079204997   -0.5947502167   -0.1385975260
N        3.3506471832    0.2214986012    0.9993664546
N        4.3391017329   -0.3450992986   -1.1082388067
N        1.3515261227   -1.7581787977    0.1315553919
O        3.2689123929   -2.9097641753   -0.3205893281
H        5.7362090086    2.4603409914    0.1558956924
H        4.0583608140    1.9064970406    1.9712786243
H        5.7953245248    0.9186002540   -1.8532731482
H        0.3406041622   -0.4398726979   -1.2123222974
H        0.9613916812    0.2995030693    0.2889533384
H       -0.4587939348   -0.7439358018    0.3482588345
H        0.9045192086   -2.6656781778    0.0426410403
17   
Generated by ForceBalance from scan.xyz: Frame 15 of 24
C        5.1441197955    1.6182156882    0.1242261158
C        4.1447370846    1.3544926201    1.0602753200
C        5.2373921207    0.7319164458   -0.9520364615
C        3.5262205869   -0.5016170861   -0.1052701649
C        2.6961035057   -1.7758539445   -0.1886156112
C        0.4818900290   -0.6111860468   -0.0834711735
N        3.3198998616    0.3043426417    0.9466986320
N        4.4406317118   -0.3350380298   -1.0708005553
N        1.3938583512   -1.7078115880    0.2554639010
O        3.2345958466   -2.8321287816   -0.5003853526
H        5.8069999475    2.4725677054    0.2206935695
H        3.9915500799    2.0006408939    1.9234985080
H        5.9731709184    0.8785576051   -1.7416861287
H        0.2054209339   -0.6130304880   -1.1457990599
H        0.9435354130    0.3437237876    0.1677532789
H       -0.4254529157   -0.7111690879    0.5173747389
H        0.9685104665   -2.6287975677    0.1851416488
17   
Generated by ForceBalance from scan.xyz: Frame 16 of 24
C        5.2031331012    1.6238892541    0.1522555632
C        4.1180149478    1.4146856942    1.0029166025
C        5.3603148577    0.7073101175   -0.8907814615
C        3.5455480254   -0.4550812766   -0.1658613124
C        2.6774100848   -1.7004650607   -0.3035264602
C        0.4333653289   -0.6594148735   -0.0225227944
N        3.2770802240    0.3839623591    0.8456845372
N        4.5409630942   -0.3355367844   -1.0553355162
N        1.4416761872   -1.6713267336    0.3269251484
O        3.1475480875   -2.7260369319   -0.7793423205
H        5.8818910609    2.4605979174    0.2858606640
H        3.9092022064    2.0895434290    1.8318650916
H        6.1658017870    0.8112122117   -1.6166945319
H        0.0723056711   -0.7727723499   -1.0529453824
H        0.8547959597    0.3382105782    0.1048227034
H       -0.4127299237   -0.7555104903    0.6625884538
H        1.0564472641   -2.6122441439    0.2673264565
17   
Generated by ForceBalance from scan.xyz: Frame 17 of 24
C        5.2659037700    1.6543150266    0.2320740818
C        4.0539347353    1.5465505065    0.9148209777
C        5.5292810474    0.6698195464   -0.7234556041
C        3.5626210746   -0.3605903044   -0.2323467720
C        2.6374324134   -1.5506688106   -0.4646125058
C        0.3726653350   -0.7075771826    0.0984633823
N        3.1970378794    0.5436675120    0.6896196087
N        4.6824890380   -0.3353567584   -0.9667847198
N        1.5054285005   -1.6183473898    0.3572308242
O        2.9920662592   -2.4875794567   -1.1644431033
H        5.9614138808    2.4652501083    0.4251362350
H        3.7579043001    2.2808240866    1.6628039993
H        6.4434164075    0.6883910396   -1.3156225216
H       -0.0591846850   -0.8595332633   -0.8994112906
H        0.7056917884    0.3263086731    0.1965052328
H       -0.3986680344   -0.8888011065    0.8513474084
H        1.1737189993   -2.5792907945    0.2745167866
17   
Generated by ForceBalance from scan.xyz: Frame 18 of 24
C        5.3236181844    1.6013101552    0.2348618180
C        4.0124970540    1.6553536264    0.7113797109
C        5.6511043398    0.5012060691   -0.5602642437
C        3.5440050564   -0.3154260264   -0.3302923440
C        2.5438498317   -1.4186570247   -0.6402158133
C        0.3138242976   -0.8543362901    0.2450033523
N        3.1198946310    0.6956449080    0.4449051500
N        4.7639899214   -0.4538022876   -0.8625389410
N        1.5664756663   -1.6383988218    0.3614331457
O        2.7182834675   -2.1868009703   -1.5702170165
H        6.0486052902    2.3754116760    0.4665795520
H        3.6676376843    2.4848014892    1.3272192821
H        6.6514037123    0.3818211343   -0.9744609772
H       -0.1824988278   -1.0109702479   -0.7218464668
H        0.5390430871    0.2058257490    0.3701221315
H       -0.3613820008   -1.1615106002    1.0476538982
H        1.3083006116   -2.6181982106    0.2304334426
17   
Generated by ForceBalance from scan.xyz: Frame 19 of 24
C        5.2745912635    1.4763740744    0.3486998030
C        4.1568796118    1.2523180666    1.1507312065
C        5.4539714819    0.6031494516   -0.7286073539
C        3.5543776082   -0.5114931218   -0.1710608151
C        2.5304565894   -1.6010790319   -0.5018533954
C        0.1633654279   -1.1373196970   -0.2086626034
N        3.2914380343    0.2622088969    0.8953343469
N        4.6051432735   -0.3945722309   -0.9921328167
N        1.4220446042   -1.6692367543    0.3508607661
O        2.6210415210   -2.2418902910   -1.5341777820
H        5.9716109734    2.2830559965    0.5528104629
H        3.9437418379    1.8760254044    2.0173103398
H        6.3070236129    0.7041462159   -1.3984258631
H       -0.6533171087   -1.3560304614    0.4838354636
H       -0.0475099556   -1.6330931767   -1.1578481715
H        0.2134310491   -0.0521359151   -0.3725710780
H        1.6404032172   -1.1356555094    1.1911022786
17   
Generated by ForceBalance from scan.xyz: Frame 20 of 24
C        5.3719739553    1.4495219030    0.3712075635
C        4.2378568269    1.2738991588    1.1623515259
C        5.5159557937    0.5789866001   -0.7132163414
C        3.5576131075   -0.4436322835   -0.1827758890
C        2.4850147792   -1.4771783070   -0.5349520568
C        0.0760801583   -1.2584976898   -0.2044253350
N        3.3260198095    0.3315464353    0.8901125659
N        4.6194064405   -0.3714719562   -0.9941030855
N        1.4127454086   -1.5335194329    0.3447315100
O        2.5300016718   -2.0877501434   -1.5915499882
H        6.1067904922    2.2181950150    0.5889304021
H        4.0493475274    1.8989486111    2.0336861560
H        6.3788896807    0.6427489254   -1.3749349869
H       -0.6829506344   -1.5491813258    0.5263220372
H       -0.0683653239   -1.8506805407   -1.1091192990
H       -0.0484833608   -0.1950978072   -0.4485117029
H        1.6016819338   -0.9318127560    1.1437433025
17   
Generated by ForceBalance from scan.xyz: Frame 21 of 24
C        5.4491029424    1.4135307548    0.4012257850
C        4.3003177049    1.2837918794    1.1803868624
C        5.5560455077    0.5561895544   -0.6974458666
C        3.5449730587   -0.3750716034   -0.1979586650
C        2.4297215772   -1.3536675168   -0.5702339437
C        0.0108279933   -1.3762810333   -0.1925041096
N        3.3441623413    0.3942201483    0.8857448765
N        4.6138838329   -0.3420401951   -1.0016696763
N        1.3817983332   -1.3874219501    0.3241380631
O        2.4495087065   -1.9597614309   -1.6324834167
H        6.2207867223    2.1392768275    0.6379126763
H        4.1364179300    1.9042657446    2.0599852210
H        6.4256641808    0.5875399578   -1.3527181997
H       -0.6792749551   -1.6945183601    0.5931214310
H       -0.0608949004   -2.0750377719   -1.0266678920
H       -0.2773960386   -0.3760135861   -0.5415428081
H        1.5291998563   -0.7381703125    1.0925369186
17   
Generated by ForceBalance from scan.xyz: Frame 22 of 24
C        5.5189689646    1.3754961738    0.4321574136
C        4.3483025757    1.3007046674    1.1860213168
C        5.5992554927    0.5300301497   -0.6775327403
C        3.5302426496   -0.2945396642   -0.2308496773
C        2.3758044153   -1.2129825040   -0.6313636293
C       -0.0203180367   -1.4750424005   -0.1781153266
N        3.3507266550    0.4698563324    0.8604220425
N        4.6133835702   -0.3078192869   -1.0151953081
N        1.3465515043   -1.2330920555    0.2734703073
O        2.3757625521   -1.8135070789   -1.6987069178
H        6.3254187209    2.0527097940    0.6953317304
H        4.2010989913    1.9186295187    2.0704092142
H        6.4820997754    0.5217070846   -1.3155925754
H       -0.6307154193   -1.8153194254    0.6624392047
H       -0.0066642541   -2.2509787473   -0.9440956685
H       -0.4687201682   -0.5684289262   -0.6049368369
H        1.4611870596   -0.5646256729    1.0292321091
17   
Generated by ForceBalance from scan.xyz: Frame 23 of 24
C        5.5662936024    1.3349205431    0.4580316077
C        4.3815087870    1.3059966861    1.1933022261
C        5.6184032650    0.5117635100   -0.6695569052
C        3.5042837554   -0.2156630965   -0.2682709845
C        2.3176347077   -1.0789961417   -0.6935440488
C       -0.0384985793   -1.5396220820   -0.1640020331
N        3.3480463682    0.5343245746    0.8369208475
N        4.5948194695   -0.2652826744   -1.0401469086
N        1.2851858745   -1.0564805917    0.1980595526
O        2.3162503383   -1.7046819876   -1.7478133422
H        6.4028209379    1.9631713681    0.7474537652
H        4.2530542982    1.9131659249    2.0880602940
H        6.5083524104    0.4721041652   -1.2964830626
H       -0.5654565390   -1.8774517851    0.7323738664
H        0.0712190855   -2.3776718757   -0.8532880381
H       -0.6331710016   -0.7598762641   -0.6571617225
H        1.3807690364   -0.3960207471    0.9614844353
17   
Generated by ForceBalance from scan.xyz: Frame 24 of 24
C        5.6122935937    1.3222162681    0.5033899243
C        4.4097332308    1.3187131798    1.2101392994
C        5.6606286950    0.5278371397   -0.6446003834
C        3.5146158252   -0.1353985716   -0.3082283566
C        2.3158925723   -0.9627537087   -0.7688862063
C        0.0028344890   -1.5775664172   -0.1806868411
N        3.3587211436    0.5931902875    0.8114808325
N        4.6189529094   -0.2021930971   -1.0584598036
N        1.2471444036   -0.8707716598    0.0687399812
O        2.3469560719   -1.6410019228   -1.7904557478
H        6.4640659524    1.9113020260    0.8285083566
H        4.2817002474    1.9086975861    2.1164141851
H        6.5620579862    0.4738050353   -1.2537907715
H       -0.4208129595   -1.9274741037    0.7650429895
H        0.2120877491   -2.4341136670   -0.8232196823
H       -0.7327677911   -0.9384626958   -0.6848992017
H        1.3424139540   -0.2477605656    0.8618499949
