16   

C        0.5835530554    0.8867059417    1.7731429421
C        0.3344248595    0.9003437608    3.1258243809
C       -0.2610893748    0.1632357456    0.9623554544
C       -4.2782735978   -1.9971502064    4.4797689100
C       -4.3309924883   -2.6059300307    3.2689068481
C       -1.4934568340   -0.4679937987    2.7986909337
C       -2.6556103790   -1.2100371894    3.3143732217
N       -0.6923706837    0.2317340369    3.6338208915
N       -1.2902884055   -0.5056209028    1.4705701510
N       -3.2196027328   -1.1199490757    4.4892672797
O       -3.3168739021   -2.1251998366    2.5131284036
H        1.4201590197    1.4312799380    1.3593067960
H        0.9823970193    1.4630425530    3.7882225561
H       -0.0863613103    0.1381449290   -0.1071897919
H       -4.9602492146   -2.1724525535    5.3035666268
H       -5.0579889590   -3.3470982510    2.9599878762
16   

C        0.5779209883    0.8955901208    1.7741235959
C        0.3873382559    0.8314876319    3.1350282366
C       -0.3155476797    0.2382498480    0.9590643057
C       -4.3332486691   -1.9259442129    4.4425685787
C       -4.2549064325   -2.6873758266    3.3224354469
C       -1.4777479449   -0.4832503314    2.8063988359
C       -2.6427222414   -1.2214117697    3.3261236023
N       -0.6297656948    0.1509906763    3.6470008495
N       -1.3356500983   -0.4417875513    1.4708379040
N       -3.3131256816   -1.0040693353    4.4248001171
O       -3.1949211882   -2.2602708761    2.5977583117
H        1.4065858129    1.4499021212    1.3572467838
H        1.0740294596    1.3420801465    3.8006267997
H       -0.1878164623    0.2761326405   -0.1167325269
H       -5.0801116093   -2.0258846151    5.2214649599
H       -4.9244178976   -3.4954147674    3.0538843456
16   

C        0.5647723526    0.8994387012    1.7805777151
C        0.4333204255    0.7555664221    3.1426660524
C       -0.3807412119    0.3146708577    0.9684843677
C       -4.3980490819   -1.8609459681    4.3988951437
C       -4.1905821946   -2.7575122140    3.4013767901
C       -1.4752862876   -0.4932138506    2.8191821012
C       -2.6448301174   -1.2267187641    3.3449546727
N       -0.5769306953    0.0677143007    3.6588296836
N       -1.3944189507   -0.3722256736    1.4839204559
N       -3.4176458492   -0.8981300261    4.3419975164
O       -3.0873179610   -2.3761381650    2.7165411836
H        1.3877707509    1.4598285952    1.3605997018
H        1.1615841043    1.2087346742    3.8056437842
H       -0.3000938741    0.4168529940   -0.1076892038
H       -5.2073395039   -1.8956492211    5.1188439453
H       -4.8021024537   -3.6259506821    3.1888720994
16   

C        0.5594685856    0.9070924546    1.7764765377
C        0.4816148522    0.6759651991    3.1309731015
C       -0.4402773439    0.4096315308    0.9706461960
C       -4.4684552904   -1.7987561414    4.3146765211
C       -4.1283375429   -2.8073900826    3.4721093893
C       -1.4813653195   -0.4822925105    2.8107191904
C       -2.6595605159   -1.2108311084    3.3375966994
N       -0.5296213223   -0.0116124693    3.6461534629
N       -1.4549736009   -0.2768829486    1.4846615471
N       -3.5330299148   -0.7959078995    4.2082981269
O       -2.9854634780   -2.4569224890    2.8372813343
H        1.3830994819    1.4673866362    1.3575978079
H        1.2535608057    1.0592982792    3.7885623676
H       -0.4019100962    0.5813963842   -0.0989927886
H       -5.3382991727   -1.7842276460    4.9609358130
H       -4.6767323392   -3.7307521377    3.3307702090
16   

C        0.5685585944    0.9024959766    1.7832549796
C        0.5310360827    0.5741577639    3.1194793334
C       -0.4846025853    0.5138838587    0.9852718567
C       -4.5417926759   -1.7494448768    4.2169436480
C       -4.0634043059   -2.8438132989    3.5711485192
C       -1.4997784989   -0.4566916257    2.7973529361
C       -2.6907725131   -1.1803801207    3.3168223428
N       -0.4935801576   -0.1009196616    3.6252179509
N       -1.5121980661   -0.1604925895    1.4896705408
N       -3.6616811886   -0.7073330203    4.0382544482
O       -2.8887159653   -2.5072608765    2.9889041437
H        1.4028538850    1.4527378979    1.3722162430
H        1.3464511735    0.8692040901    3.7701059466
H       -0.4776292835    0.7619189211   -0.0699721095
H       -5.4679750726   -1.7039659371    4.7778502867
H       -4.5391823361   -3.8159761207    3.5280300680
16   

C        0.5729516920    0.8983402312    1.7921319727
C        0.5548584620    0.4512956666    3.0937148227
C       -0.5247832658    0.6455571124    0.9998023944
C       -4.6327492996   -1.7127985242    4.0829996042
C       -4.0183437860   -2.8520993930    3.6729575647
C       -1.5489509433   -0.4156586591    2.7548189642
C       -2.7533230178   -1.1393395868    3.2498830875
N       -0.4948982340   -0.2045093306    3.5727950442
N       -1.5764881397   -0.0104606281    1.4779384327
N       -3.8145575981   -0.6419060840    3.8064434467
O       -2.8208267105   -2.5140991662    3.1401742805
H        1.4273668607    1.4331913230    1.4026796865
H        1.4067677491    0.6348612036    3.7385586023
H       -0.5328126188    0.9856002007   -0.0294764433
H       -5.6083507317   -1.6570309301    4.5516089353
H       -4.4165951450   -3.8558933756    3.7573832457
16   

C        0.5783777696    0.9009229771    1.7988120189
C        0.5800994440    0.3316504144    3.0516666405
C       -0.5534027233    0.7716530498    1.0251033578
C       -4.6897698925   -1.7238211343    3.9343195933
C       -3.9617016241   -2.8581855808    3.7716344678
C       -1.5753462498   -0.4000753966    2.7110917457
C       -2.7829038375   -1.1348424342    3.1739509294
N       -0.4841106929   -0.3200192326    3.5038144974
N       -1.6187545650    0.1188600123    1.4763408526
N       -3.9230281567   -0.6454708796    3.5578152902
O       -2.7442766813   -2.5101296937    3.2932883268
H        1.4442946476    1.4328664716    1.4314139739
H        1.4598726055    0.4137268640    3.6797860488
H       -0.5769860039    1.2066807542    0.0324813381
H       -5.7073153387   -1.6761582874    4.3042231255
H       -4.2959000595   -3.8655571364    3.9880634733
16   

C        0.5786343654    0.9159483584    1.8043342021
C        0.6126025316    0.2448819150    3.0051723215
C       -0.5852094661    0.8795683912    1.0693350246
C       -4.7183795676   -1.7400900049    3.8168769816
C       -3.9175659998   -2.8336482647    3.8925626606
C       -1.5766016481   -0.3981200293    2.6974939077
C       -2.7800939182   -1.1407983584    3.1415150940
N       -0.4517832555   -0.4139244551    3.4464729281
N       -1.6504791918    0.2192979022    1.5091575262
N       -3.9783566284   -0.6785839134    3.3504301465
O       -2.6802938247   -2.4777332616    3.4748036576
H        1.4446615420    1.4540426188    1.4462781935
H        1.5183546990    0.2515870458    3.6008565010
H       -0.6344177082    1.3947434664    0.1168268526
H       -5.7677966465   -1.7080626349    4.0855580148
H       -4.2158461604   -3.8187361200    4.2301280611
16   

C        0.5721952491    0.9272288503    1.8048548748
C        0.6423172252    0.1711933147    2.9524111710
C       -0.6216457535    0.9643256799    1.1197600632
C       -4.7340818353   -1.7785980898    3.7100790648
C       -3.8925220652   -2.8015160390    4.0062977902
C       -1.5707774573   -0.4111713810    2.6943552372
C       -2.7686437239   -1.1575242146    3.1312680206
N       -0.4159728257   -0.4988835674    3.3914320179
N       -1.6808212062    0.2929535143    1.5568374322
N       -4.0049188901   -0.7459769222    3.1683711019
O       -2.6394767463   -2.4302733021    3.6541373417
H        1.4334222382    1.4744235576    1.4490216320
H        1.5720077514    0.1194598264    3.5076317195
H       -0.6999676060    1.5476022840    0.2094042731
H       -5.8047047866   -1.7748190983    3.8781129853
H       -4.1739691829   -3.7492067555    4.4489991049
16   

C        0.5623834088    0.9396926721    1.8048646534
C        0.6651113861    0.1107844079    2.8983311565
C       -0.6577889442    1.0409996710    1.1749205732
C       -4.7429299429   -1.8252828846    3.6139474700
C       -3.8859661433   -2.7515796618    4.1132379577
C       -1.5667023552   -0.4218526282    2.6951361807
C       -2.7608623401   -1.1667580728    3.1327682215
N       -0.3865865907   -0.5690891843    3.3381515881
N       -1.7105248848    0.3603973664    1.6127078023
N       -4.0153890222   -0.8292402137    3.0061071347
O       -2.6241829521   -2.3553350831    3.8255952070
H        1.4185251484    1.4943974882    1.4483932628
H        1.6155072125    0.0089942270    3.4098585038
H       -0.7626649708    1.6836936531    0.3082974272
H       -5.8235929333   -1.8629685820    3.6862126957
H       -4.1629719127   -3.6508911771    4.6497243706
16   

C        0.5524580549    0.9576470374    1.8121454975
C        0.6801924029    0.0637256774    2.8502864479
C       -0.6891516407    1.1199549591    1.2395825243
C       -4.7451377564   -1.8743466280    3.5345354166
C       -3.8935371357   -2.6793495373    4.2185530603
C       -1.5674453144   -0.4204457477    2.7012357553
C       -2.7603092496   -1.1609466298    3.1439190763
N       -0.3673422661   -0.6221826471    3.2906621909
N       -1.7378423245    0.4339711890    1.6783088960
N       -4.0140596502   -0.9205851970    2.8664543822
O       -2.6314751778   -2.2473442775    3.9898903409
H        1.4054893481    1.5165393679    1.4547620762
H        1.6472072139   -0.0850989341    3.3172010974
H       -0.8147181316    1.8163989235    0.4184332041
H       -5.8247740719   -1.9672004672    3.5192595302
H       -4.1743683341   -3.5209048814    4.8400248896
16   

C        0.5490481065    0.9715129987    1.8276902547
C        0.6933539250    0.0150050656    2.8061479145
C       -0.7084557668    1.1943942841    1.3131709837
C       -4.7365160508   -1.9344111636    3.4596920368
C       -3.9122961246   -2.5985521844    4.3085191650
C       -1.5672838730   -0.4194497466    2.7059281953
C       -2.7615353951   -1.1545346662    3.1522033422
N       -0.3528689537   -0.6752277885    3.2428788858
N       -1.7560094260    0.5048648835    1.7489051560
N       -3.9947168180   -1.0285273564    2.7389717164
O       -2.6571336017   -2.1235782379    4.1335106253
H        1.4012457012    1.5331042615    1.4725563252
H        1.6725742712   -0.1803403730    3.2283365784
H       -0.8478368966    1.9427733562    0.5414267835
H       -5.8045159733   -2.0925011205    3.3656120932
H       -4.2069768088   -3.3739430563    5.0051117832
16   

C        0.5479140134    0.9806541616    1.8428950589
C        0.7019444169   -0.0365443514    2.7565428608
C       -0.7207755870    1.2637266867    1.3889369706
C       -4.7180210927   -2.0062213554    3.3915217589
C       -3.9401947262   -2.5117073649    4.3817797391
C       -1.5694809895   -0.4189194107    2.7038512655
C       -2.7662633005   -1.1489628187    3.1532201611
N       -0.3452547619   -0.7293527796    3.1868106033
N       -1.7694755096    0.5722733125    1.8189647141
N       -3.9608223167   -1.1526407893    2.6243712614
O       -2.6995949579   -1.9866639257    4.2515491063
H        1.4010385346    1.5436250253    1.4921958238
H        1.6897287892   -0.2783046495    3.1321878490
H       -0.8682436603    2.0623462945    0.6709208727
H       -5.7641844577   -2.2390444013    3.2308819651
H       -4.2564023417   -3.2136962186    5.1437070833
16   

C        0.6387286728    0.8369684933    1.8289046955
C       -0.3408347725    1.4524152450    2.5739073712
C        0.4989012106   -0.5034793145    1.5467787567
C       -3.9498818691   -2.8844850757    3.8682211895
C       -4.6558451122   -1.7254786518    3.8643626796
C       -1.4726472766   -0.5480637769    2.7248364727
C       -2.6255460079   -1.3481765063    3.1755755822
N       -1.3906139432    0.7699794871    3.0143555748
N       -0.5514015026   -1.1873322576    1.9853474193
N       -2.6694849395   -2.6259683864    3.4385339312
O       -3.8382033074   -0.7365203405    3.4339316924
H        1.4941177964    1.3926848989    1.4722010667
H       -0.2577330739    2.5080742122    2.8061852172
H        1.2548650687   -1.0095863370    0.9573175514
H       -4.3321179177   -3.8541097761    4.1652041565
H       -5.6927195589   -1.6110421665    4.1560934144
16   

C        0.6291904481    0.8432513560    1.8202977175
C       -0.3059354343    1.4278013489    2.6432929547
C        0.4505685465   -0.4741945048    1.4618418662
C       -3.9277809815   -2.8648365284    3.9618421772
C       -4.6829287453   -1.7582476561    3.7437098981
C       -1.4661305941   -0.5597737231    2.7231230822
C       -2.6216733901   -1.3634341186    3.1721693703
N       -1.3491736330    0.7369871005    3.0862068942
N       -0.5936414797   -1.1661988809    1.9027220242
N       -2.6276872697   -2.5930315791    3.6050361616
O       -3.8768754343   -0.7902360645    3.2485179980
H        1.4795955147    1.4054398237    1.4618192236
H       -0.1927671024    2.4655738921    2.9356868260
H        1.1701862974   -0.9549662863    0.8090760597
H       -4.2897646412   -3.8065789582    4.3575338423
H       -5.7451509368   -1.6650690431    3.9342778271
16   

C        0.6220956201    0.8579813379    1.8183251685
C       -0.2565640305    1.4045662227    2.7253528063
C        0.3958440309   -0.4293650480    1.3851632780
C       -3.9083708645   -2.8208494591    4.0776053226
C       -4.6917290561   -1.8007422426    3.6432881332
C       -1.4537984945   -0.5619593934    2.7370103695
C       -2.6089975001   -1.3690837869    3.1965672664
N       -1.2909172972    0.7056831473    3.1763136865
N       -0.6398043041   -1.1291633807    1.8345128499
N       -2.5951895841   -2.5240685446    3.7956881570
O       -3.8899203639   -0.8638087181    3.0853459726
H        1.4653720774    1.4264357176    1.4529524884
H       -0.1057650061    2.4185556669    3.0779950931
H        1.0701369324   -0.8795039373    0.6655781871
H       -4.2603494665   -3.7193760225    4.5708117413
H       -5.7700380744   -1.7450887137    3.7297283732
16   

C        0.6093498941    0.8595985986    1.8087596267
C       -0.1966115563    1.3679640330    2.8015883709
C        0.3156177574   -0.3878235070    1.3048528699
C       -3.9107441996   -2.7632072866    4.1851138287
C       -4.7009432449   -1.8718596192    3.5336401722
C       -1.4582469152   -0.5563153344    2.7487684390
C       -2.6115783175   -1.3634286152    3.2290920036
N       -1.2267235006    0.6707996864    3.2647137076
N       -0.7156806128   -1.0860516851    1.7670537892
N       -2.5938726319   -2.4188595949    3.9857099661
O       -3.8989705916   -0.9695012243    2.9215366608
H        1.4489820879    1.4266118634    1.4328993889
H        0.0087228151    2.3498988232    3.2125789265
H        0.9325565481   -0.8074019628    0.5184406458
H       -4.2610793153   -3.6057509423    4.7698228101
H       -5.7838334364   -1.8803037747    3.5090414336
16   

C        0.6067748660    0.8532068895    1.8029941716
C       -0.1030395782    1.3290784534    2.8818837982
C        0.2133473960   -0.3392850761    1.2374108988
C       -3.9162741601   -2.6687277797    4.3136650318
C       -4.6906457644   -1.9550883688    3.4565171580
C       -1.4743504222   -0.5152003559    2.7788121827
C       -2.6236319271   -1.3123750311    3.2916249820
N       -1.1385598219    0.6542793662    3.3655477877
N       -0.8227560545   -1.0161177907    1.7205709239
N       -2.6128503108   -2.2452491045    4.1933172265
O       -3.8919226626   -1.0850125923    2.7953371838
H        1.4504952889    1.4023267734    1.4100982135
H        0.1839292309    2.2664045424    3.3448502442
H        0.7553466417   -0.7331080509    0.3852084805
H       -4.2682949527   -3.4449533939    4.9830364182
H       -5.7603835635   -2.0629655702    3.3247683873
16   

C        0.6080917200    0.8434699050    1.7979051057
C       -0.0053585711    1.2833663636    2.9489277457
C        0.1045611018   -0.2780718807    1.1769961126
C       -3.9503979734   -2.5419397450    4.4111970475
C       -4.6735093386   -2.0361033819    3.3793104704
C       -1.5082699164   -0.4512970737    2.7972532127
C       -2.6578079717   -1.2296652904    3.3307606956
N       -1.0561258518    0.6433922686    3.4465676839
N       -0.9461702170   -0.9213656854    1.6742781813
N       -2.6771100467   -2.0238054795    4.3582639729
O       -3.8735048706   -1.2008369980    2.6761094972
H        1.4640441716    1.3646554065    1.3935829052
H        0.3717776253    2.1628537457    3.4583778667
H        0.5716696422   -0.6438118361    0.2697179047
H       -4.3160900746   -3.2427323722    5.1525863074
H       -5.7091379809   -2.2624268436    3.1566549075
16   

C        0.6142320549    0.8340281366    1.7941070714
C        0.0740884963    1.2197154809    2.9997737127
C        0.0274322800   -0.2144079755    1.1212254195
C       -3.9972027480   -2.4274898611    4.4664132550
C       -4.6381610939   -2.1271497070    3.3080046785
C       -1.5277878163   -0.4203437647    2.7957815768
C       -2.6806488808   -1.1826799398    3.3308197095
N       -0.9870910578    0.5987773664    3.4988790782
N       -1.0335638144   -0.8391441317    1.6203392914
N       -2.7588060165   -1.8288773053    4.4575632802
O       -3.8218650272   -1.3409585955    2.5680319617
H        1.4786348183    1.3399202421    1.3883511501
H        0.5185638317    2.0399773068    3.5519337270
H        0.4369449083   -0.5378474418    0.1710732973
H       -4.3946342288   -3.0432620137    5.2647636742
H       -5.6290842565   -2.4600774554    3.0242063301
16   

C        0.6078623527    0.8419507060    1.7944521586
C        0.1303488626    1.1598357018    3.0451298647
C       -0.0417135962   -0.1376848492    1.0776460946
C       -4.0519365591   -2.3226847199    4.5103540357
C       -4.5952618979   -2.2175447693    3.2711369757
C       -1.5379093742   -0.4096308674    2.7990505095
C       -2.6924606036   -1.1631347926    3.3296527631
N       -0.9309989560    0.5401698740    3.5448579529
N       -1.1030646304   -0.7609637122    1.5777469089
N       -2.8478532445   -1.6583059102    4.5254558056
O       -3.7513528576   -1.4901400977    2.5028035332
H        1.4724027720    1.3469051696    1.3878373613
H        0.6248619035    1.9248977897    3.6328421855
H        0.3178200651   -0.4076247205    0.0912573329
H       -4.4928067857   -2.8489316369    5.3489117164
H       -5.5388158395   -2.6429808339    2.9517453399
16   

C        0.6097844611    0.8530768074    1.7843769508
C        0.1882086154    1.0971737764    3.0709159874
C       -0.0903131784   -0.0622657664    1.0315719579
C       -4.1019796680   -2.2345022603    4.5170245019
C       -4.5324478258   -2.3170688904    3.2330876662
C       -1.5265763238   -0.4181013507    2.7906759977
C       -2.6826881491   -1.1680852169    3.3132557480
N       -0.8674962300    0.4681798828    3.5704621393
N       -1.1464673258   -0.6942013396    1.5317398107
N       -2.9323388767   -1.5121183562    4.5473881972
O       -3.6505807858   -1.6523162299    2.4510655114
H        1.4697435322    1.3656346550    1.3775744394
H        0.7225154920    1.8110827147    3.6874556639
H        0.2240820900   -0.2734368423    0.0158694471
H       -4.5972554030   -2.6701144940    5.3769174136
H       -5.4253734581   -2.8270232408    2.8926135632
16   

C        0.6035092824    0.8600802203    1.7795688151
C        0.2377597478    1.0293171025    3.0947053397
C       -0.1437684610    0.0067034986    1.0001264250
C       -4.1593315378   -2.1558461964    4.5180608454
C       -4.4684538482   -2.4225248780    3.2246525588
C       -1.5155532864   -0.4385121097    2.7915777259
C       -2.6734916508   -1.1861795937    3.3086164109
N       -0.8090287529    0.3873823269    3.5962650005
N       -1.1915707643   -0.6373323437    1.5023516696
N       -3.0253022578   -1.3791905543    4.5518199329
O       -3.5440767921   -1.8220588570    2.4399827637
H        1.4562129242    1.3831764068    1.3709154037
H        0.8091289738    1.6942215402    3.7324423477
H        0.1253648868   -0.1443452081   -0.0390261204
H       -4.7144826269   -2.5003616230    5.3826883490
H       -5.3081064884   -3.0133838116    2.8794652284
16   

C        0.5898081109    0.8762615869    1.7727203748
C        0.2840120194    0.9680419336    3.1105954689
C       -0.2076047797    0.0878749257    0.9748307161
C       -4.2211153780   -2.0703377372    4.5082959547
C       -4.4054234937   -2.5124791290    3.2395693735
C       -1.5081915876   -0.4497870830    2.7943051359
C       -2.6678672084   -1.1944533766    3.3104140411
N       -0.7525631429    0.3131525852    3.6165125356
N       -1.2458837770   -0.5681688463    1.4812459901
N       -3.1237759062   -1.2424826400    4.5340625255
O       -3.4373307600   -1.9737802229    2.4629310423
H        1.4342987428    1.4097741779    1.3604946118
H        0.8948015627    1.5817909160    3.7629128426
H        0.0129490116   -0.0005466660   -0.0828191916
H       -4.8379543725   -2.3277227214    5.3613639540
H       -5.1902334828   -3.1801753455    2.9055974009
