28   
Generated by ForceBalance from scan.xyz: Frame 1 of 24
C        5.5089339801    5.0242033871   -2.2073591317
C        5.9261783550    4.3159901232   -3.3446674672
C        4.8613691577    4.3436609949   -1.1841641278
C        5.6712389849    2.9475417932   -3.3876390791
C        4.6560650502    2.9583759250   -1.3348313927
C        0.6960893743   -0.3187653396   -0.4421403695
C        1.4600204095   -0.0782755126   -1.7502967592
C        1.6582587552   -0.3571180671    0.7523148645
C        2.3395694383    1.1813738569   -1.6826796546
C        2.5328168193    0.9032350442    0.8004195145
C        3.3124305177    1.0944067973   -0.5007809865
N        5.0554705404    2.2692351474   -2.4040434591
O        4.0794237520    2.3140273610   -0.2910901075
H        5.6832509482    6.0942355721   -2.1258351814
H        6.4324328785    4.8091155007   -4.1687528778
H        4.5124176516    4.8399095274   -0.2844128039
H        5.9787696692    2.3551459644   -4.2484200836
H        0.1223930097   -1.2512127905   -0.5008478268
H       -0.0310156143    0.4914237718   -0.2937710822
H        2.0950279252   -0.9486286834   -1.9655410703
H        0.7623123410    0.0107746205   -2.5907391791
H        1.1019984605   -0.4566286960    1.6913213320
H        2.3007040600   -1.2448685192    0.6741039327
H        2.8862267951    1.3042803746   -2.6178414078
H        1.7080135061    2.0697086209   -1.5460024485
H        1.9058478198    1.7902734886    0.9527403146
H        3.2336563669    0.8578472207    1.6414268731
H        4.0183418616    0.2709813656   -0.6619732326
28   
Generated by ForceBalance from scan.xyz: Frame 2 of 24
C        5.4197154258    5.0245533424   -2.1328106550
C        5.7954321012    4.4102466648   -3.3364411250
C        4.8781356388    4.2474075457   -1.1160404844
C        5.6115015745    3.0338424920   -3.4491653988
C        4.7371189643    2.8640261742   -1.3388880424
C        0.6686950135   -0.2101894537   -0.4555181704
C        1.5050340679   -0.1218946731   -1.7379078631
C        1.5748527023   -0.2497622040    0.7816367155
C        2.4859941165    1.0628608735   -1.7149886569
C        2.5509055392    0.9342769428    0.7884593681
C        3.3969062437    0.9778509856   -0.4856197955
N        5.1029209054    2.2636370421   -2.4724510060
O        4.2769750248    2.1258885066   -0.2986238417
H        5.5420774839    6.0960522261   -1.9950826198
H        6.2186689030    4.9793613303   -4.1584438590
H        4.5635143530    4.6682949921   -0.1666179455
H        5.8923031211    2.5125361161   -4.3634519872
H        0.0200925173   -1.0936913500   -0.4834258700
H        0.0084407012    0.6656431333   -0.3920624291
H        2.0720412384   -1.0543751869   -1.8652203773
H        0.8543241984   -0.0342277557   -2.6153473225
H        0.9757534285   -0.2398239636    1.6992684381
H        2.1411882889   -1.1911693253    0.7883048537
H        3.0787703072    1.0731179642   -2.6293441864
H        1.9269774923    2.0077445765   -1.6727558766
H        1.9959313668    1.8781948237    0.8558180756
H        3.2121081577    0.8889115987    1.6608574111
H        4.0307200631    0.0857543076   -0.5616338543
28   
Generated by ForceBalance from scan.xyz: Frame 3 of 24
C        5.3401701212    5.0080289175   -2.0444858807
C        5.6583573932    4.4925906489   -3.3087110807
C        4.8989248176    4.1401041399   -1.0520129620
C        5.5230503163    3.1192358850   -3.5045433591
C        4.7998480239    2.7696226167   -1.3591428265
C        0.6588444577   -0.1154294055   -0.4795955758
C        1.5469581421   -0.1913191765   -1.7275500541
C        1.5120692432   -0.1238204382    0.7951459164
C        2.6110499713    0.9197195904   -1.7574688697
C        2.5734132467    0.9838511278    0.7545311954
C        3.4625112480    0.8714304693   -0.4863399578
N        5.1144165825    2.2636100594   -2.5530533628
O        4.4469661086    1.9412576564   -0.3435514347
H        5.4281643504    6.0723677241   -1.8406900124
H        6.0030245129    5.1331686256   -4.1147595832
H        4.6312012772    4.4822566846   -0.0576221735
H        5.7636677491    2.6734418235   -4.4689108565
H       -0.0544423701   -0.9479568297   -0.4684730055
H        0.0660580645    0.8090480418   -0.5119439700
H        2.0476112001   -1.1689519612   -1.7563524333
H        0.9376294960   -0.1297256196   -2.6363453516
H        0.8815998278   -0.0004538698    1.6830731242
H        2.0061281419   -1.0999896252    0.8958744938
H        3.2400219958    0.8153627321   -2.6414997843
H        2.1198780666    1.9002852329   -1.8209732583
H        2.0878077231    1.9678300731    0.7332882578
H        3.2017675788    0.9560414795    1.6513303307
H        4.0240623761   -0.0706619679   -0.4657799814
28   
Generated by ForceBalance from scan.xyz: Frame 4 of 24
C        6.3636185691    4.2452283948   -2.2493428812
C        5.4250999711    4.7265934644   -3.1726581500
C        5.9418252140    3.3829956356   -1.2434109011
C        4.1004829593    4.3180833728   -3.0264678760
C        4.5780923909    3.0369201378   -1.1885507035
C        0.8103736196   -0.3760184175   -0.7990535975
C        2.0776615109   -0.5926858337   -1.6391761722
C        1.1564768886    0.1194946437    0.6125952928
C        2.9292007777    0.6872454296   -1.7068038974
C        2.0432502101    1.3734665366    0.5664848728
C        3.2850250759    1.1229005127   -0.2865460540
N        3.6717181576    3.5005456227   -2.0509997691
O        4.1856678566    2.2635816584   -0.1447694655
H        7.4096619595    4.5332191920   -2.3197101346
H        5.7095488332    5.3987103269   -3.9765191882
H        6.6244619565    2.9722928885   -0.5065864445
H        3.3353936403    4.6708213731   -3.7170209000
H        0.2292208864   -1.3039770609   -0.7430296656
H        0.1729993756    0.3671663393   -1.2970069373
H        2.6682330708   -1.4106258536   -1.2036310997
H        1.8117470415   -0.9058721290   -2.6551236208
H        0.2427581072    0.3302533648    1.1797088649
H        1.6837236679   -0.6774293339    1.1553053172
H        3.8416771309    0.5108475417   -2.2879991764
H        2.3714529982    1.4777140881   -2.2126268029
H        1.4889724505    2.2157963774    0.1342026845
H        2.3530662353    1.6702778730    1.5739577687
H        3.8554662823    0.3048182818    0.1743139042
28   
Generated by ForceBalance from scan.xyz: Frame 5 of 24
C        6.3048475630    4.2849551569   -2.2804548534
C        5.2857900300    4.7888810370   -3.1018898016
C        5.9867878756    3.3500310465   -1.3027696642
C        3.9895114467    4.3260795653   -2.8867019801
C        4.6415525720    2.9532484909   -1.1723390433
C        0.8065948778   -0.2924103089   -0.8525706857
C        2.0960296361   -0.6562302069   -1.6040195944
C        1.1131520564    0.2537391491    0.5497671607
C        3.0484100786    0.5491042130   -1.6919865816
C        2.0925157527    1.4367397807    0.4916203452
C        3.3523116989    1.0469069860   -0.2798038681
N        3.6598463785    3.4353054912   -1.9363237000
O        4.3572133555    2.0979186869   -0.1596236226
H        7.3335132145    4.6128780209   -2.4084236318
H        5.4894801741    5.5174340761   -3.8806242300
H        6.7346937167    2.9194267303   -0.6449559322
H        3.1645811838    4.6918481577   -3.4968549094
H        0.1494473690   -1.1672184197   -0.7826814697
H        0.2605682788    0.4690964501   -1.4256807329
H        2.5949522853   -1.4891100895   -1.0893383347
H        1.8608614935   -1.0089729063   -2.6145844450
H        0.1885604074    0.5599364450    1.0520577515
H        1.5494682615   -0.5486845598    1.1609935625
H        3.9804401993    0.2695149950   -2.1974355230
H        2.5820787900    1.3427300632   -2.2782891542
H        1.6254516439    2.2929243220   -0.0095863853
H        2.3747930364    1.7605032818    1.4989145804
H        3.8307941878    0.2193942018    0.2600765781
28   
Generated by ForceBalance from scan.xyz: Frame 6 of 24
C        6.2355673027    4.3690588344   -2.2497557081
C        5.1607202949    4.8632372160   -3.0050237877
C        6.0074403680    3.3571944256   -1.3267218451
C        3.9030334207    4.3097840676   -2.7816051948
C        4.6921249543    2.8707883948   -1.1826913277
C        0.7908857929   -0.2129562874   -0.8817108121
C        2.0690810910   -0.7204355698   -1.5662802995
C        1.0980591822    0.3899794879    0.4972117934
C        3.1178178335    0.3984328682   -1.6890410395
C        2.1617741421    1.4958709501    0.4041578807
C        3.4107663418    0.9658615123   -0.3001881418
N        3.6594724091    3.3387363508   -1.8842216311
O        4.5063016726    1.9239173093   -0.2316713569
H        7.2383542568    4.7660994379   -2.3868881916
H        5.2947901613    5.6510344143   -3.7398153951
H        6.8015119492    2.9319172549   -0.7216675045
H        3.0372958164    4.6621944545   -3.3409170840
H        0.0652290505   -1.0290378112   -0.7840369142
H        0.3236569248    0.5529124723   -1.5153501195
H        2.4835822548   -1.5569336948   -0.9864964837
H        1.8372360000   -1.1149692396   -2.5620794819
H        0.1847642028    0.7904471316    0.9516377531
H        1.4565323182   -0.4055128172    1.1656055676
H        4.0441584865    0.0148260578   -2.1328160685
H        2.7376403759    1.1853941415   -2.3428546379
H        1.7721569764    2.3500200808   -0.1598093055
H        2.4380521091    1.8560136818    1.4009733317
H        3.8097113846    0.1451297715    0.3088084457
28   
Generated by ForceBalance from scan.xyz: Frame 7 of 24
C        6.1890774733    4.4766436830   -2.1588012998
C        5.0937752768    4.9373036335   -2.9077391472
C        6.0251627491    3.3852925601   -1.3182557751
C        3.8837668376    4.2667260940   -2.7624311912
C        4.7515692059    2.7810254285   -1.2494138480
C        0.7779888868   -0.1616459837   -0.8777890284
C        2.0139789219   -0.7988329148   -1.5304417342
C        1.1345800101    0.5043217468    0.4596214512
C        3.1399261395    0.2316743838   -1.7186154508
C        2.2652088566    1.5329208597    0.2920268249
C        3.4752114749    0.8709337256   -0.3698422022
N        3.7026685455    3.2105219761   -1.9490887987
O        4.6439987033    1.7375506580   -0.3934546885
H        7.1576400797    4.9644817885   -2.2356676352
H        5.1780678865    5.7865502675   -3.5786005425
H        6.8371200420    2.9850331423   -0.7198739807
H        3.0045200059    4.5863343332   -3.3203183930
H       -0.0018372390   -0.9175152983   -0.7272095487
H        0.3610196574    0.5936925982   -1.5574336983
H        2.3701204987   -1.6256094445   -0.8999101405
H        1.7508646667   -1.2366678950   -2.5000392255
H        0.2527202558    0.9917982869    0.8906362342
H        1.4453205181   -0.2693232371    1.1758671087
H        4.0378299530   -0.2449728241   -2.1287924712
H        2.8205575857    1.0022652227   -2.4232656972
H        1.9257380804    2.3663798841   -0.3290390571
H        2.5647848729    1.9415860054    1.2635360845
H        3.8222541548    0.0724322184    0.2966682363
28   
Generated by ForceBalance from scan.xyz: Frame 8 of 24
C        6.1342065017    4.5905622299   -2.0205505382
C        5.0492920391    5.0250604951   -2.8001936535
C        6.0123631058    3.4265351232   -1.2765432552
C        3.8931788432    4.2523677704   -2.7854649748
C        4.7912935814    2.7203001770   -1.3368593471
C        0.7570556766   -0.1141244973   -0.8485652127
C        1.9393544078   -0.8564865161   -1.4888065747
C        1.1861232628    0.6147198273    0.4334981630
C        3.1184620113    0.0931390997   -1.7577491854
C        2.3582902230    1.5735569489    0.1658198143
C        3.5207920511    0.8006267031   -0.4614904303
N        3.7557786437    3.1188626935   -2.0733050295
O        4.7379187888    1.5858620234   -0.6003205719
H        7.0612107374    5.1580551532   -1.9959087339
H        5.1016921299    5.9304623974   -3.3967178990
H        6.8169456716    3.0460372860   -0.6557276105
H        3.0244554635    4.5460584389   -3.3732867246
H       -0.0569680313   -0.8155858913   -0.6307137841
H        0.3615170891    0.6190488074   -1.5643252339
H        2.2634830728   -1.6652490934   -0.8187702827
H        1.6287736531   -1.3333400872   -2.4254242419
H        0.3429298210    1.1732585783    0.8555746701
H        1.4802941065   -0.1265526690    1.1898153677
H        3.9794456429   -0.4602831712   -2.1495784855
H        2.8351338720    0.8395959113   -2.5038662336
H        2.0396887748    2.3685947968   -0.5116583202
H        2.6947758535    2.0430209706    1.0974877187
H        3.8433900821    0.0362962822    0.2547710072
28   
Generated by ForceBalance from scan.xyz: Frame 9 of 24
C        6.0780284522    4.6644177916   -1.8772233394
C        5.0170409552    5.1013325171   -2.6864104436
C        5.9815897858    3.4371500593   -1.2364744490
C        3.9106571309    4.2663670580   -2.8091707074
C        4.8126947428    2.6721360898   -1.4325858736
C        0.7462859192   -0.1085411720   -0.7905227721
C        1.8828973128   -0.9293168133   -1.4173445811
C        1.2450819786    0.6990891782    0.4169017858
C        3.0820601689   -0.0398946805   -1.7829219236
C        2.4306685448    1.6009189664    0.0331540979
C        3.5532503025    0.7431230230   -0.5548364011
N        3.8022293245    3.0695685436   -2.2053174080
O        4.7909957976    1.4620579685   -0.8250507035
H        6.9649843291    5.2794103832   -1.7464079539
H        5.0494896126    6.0553509370   -3.2033763033
H        6.7674366071    3.0527487955   -0.5944504220
H        3.0630814845    4.5596334536   -3.4272974662
H       -0.0769120298   -0.7679529021   -0.4910991112
H        0.3422777956    0.5822425521   -1.5427658485
H        2.2044970196   -1.7021690636   -0.7049636726
H        1.5268401820   -1.4570723592   -2.3094082544
H        0.4350140275    1.3137956597    0.8255899772
H        1.5474623737    0.0080704149    1.2162193156
H        3.9115279234   -0.6451322328   -2.1652750713
H        2.8022601214    0.6706668857   -2.5664483620
H        2.1069669151    2.3396742365   -0.7018599013
H        2.8021797606    2.1437836905    0.9105791161
H        3.8774558621    0.0287967646    0.2103581553
28   
Generated by ForceBalance from scan.xyz: Frame 10 of 24
C        6.0541590928    4.6886036147   -1.7633668332
C        5.0159398966    5.1717445124   -2.5734255025
C        5.9593796767    3.4082971120   -1.2319644057
C        3.9332139937    4.3285388996   -2.8122677899
C        4.8184881991    2.6415962374   -1.5402466855
C        0.7427622513   -0.1407109266   -0.7369854747
C        1.8524920300   -1.0169245633   -1.3358158100
C        1.2890909573    0.7608773717    0.3797479352
C        3.0475137745   -0.1707761443   -1.8025586872
C        2.4622096054    1.6194314459   -0.1234052088
C        3.5653650902    0.7051980927   -0.6595429661
N        3.8301958368    3.0824067110   -2.3204761289
O        4.7981107517    1.3731991329   -1.0628263288
H        6.9209315927    5.3074156260   -1.5446945029
H        5.0465007574    6.1669423857   -3.0062255328
H        6.7273997738    2.9860457542   -0.5921534023
H        3.1047349006    4.6581720425   -3.4379587211
H       -0.0711813657   -0.7677789034   -0.3543922288
H        0.3132815207    0.4889420164   -1.5278273776
H        2.1911007928   -1.7377080353   -0.5782755820
H        1.4640623852   -1.6062808577   -2.1741798819
H        0.4972178049    1.4142685916    0.7632774699
H        1.6176150511    0.1382510367    1.2235847609
H        3.8598091744   -0.8119897579   -2.1618131319
H        2.7532380479    0.4822371374   -2.6314134749
H        2.1152120801    2.2846687004   -0.9153960026
H        2.8562212579    2.2454612356    0.6865102281
H        3.9092359149    0.0581341152    0.1556470744
28   
Generated by ForceBalance from scan.xyz: Frame 11 of 24
C        6.0846668189    4.6931961779   -1.6787846103
C        5.0588042814    5.2684153129   -2.4417560571
C        5.9583192537    3.3733509032   -1.2605690473
C        3.9563146336    4.4745658801   -2.7526732096
C        4.8013418165    2.6625970658   -1.6329386624
C        0.7432194231   -0.2010770363   -0.6720686756
C        1.8587713237   -1.1018204718   -1.2217295987
C        1.2975868941    0.8159344391    0.3363546116
C        3.0187329223   -0.2737500991   -1.7958794257
C        2.4310980248    1.6522013190   -0.2824739682
C        3.5441535911    0.7169113145   -0.7560275280
N        3.8251013705    3.1930353433   -2.3722142775
O        4.7489796042    1.3535603002   -1.2804942918
H        6.9656208867    5.2702526736   -1.4085891360
H        5.1130950476    6.2964339662   -2.7867633635
H        6.7158168089    2.8789529503   -0.6611748580
H        3.1371514052    4.8768540991   -3.3474644058
H       -0.0409340053   -0.8093534140   -0.2060662546
H        0.2724189437    0.3398050520   -1.5040403422
H        2.2365905411   -1.7426075528   -0.4127418407
H        1.4639447121   -1.7738899094   -1.9920729150
H        0.4998700453    1.4833967929    0.6814922067
H        1.6678016210    0.2849419545    1.2243741872
H        3.8375346540   -0.9246045238   -2.1208934302
H        2.6857686313    0.2944488204   -2.6725453341
H        2.0469083048    2.2278233059   -1.1261606929
H        2.8236598171    2.3678426934    0.4500141211
H        3.9195212372    0.1588482090    0.1107028494
28   
Generated by ForceBalance from scan.xyz: Frame 12 of 24
C        0.7361862851   -0.5127161609    7.1165828238
C       -0.5038158113    0.0344671872    7.4748146921
C        0.8370854374   -1.2426639149    5.9380316235
C       -1.5859838187   -0.1967103524    6.6274985911
C       -0.3196805724   -1.4095311610    5.1522178070
C        0.7656889400    0.5973784483    1.7745406542
C        1.4810763306   -0.7476946360    1.9663782919
C       -0.4402995215    0.7256942663    2.7170247830
C        0.5131486891   -1.9235279673    1.7780220780
C       -1.3954168833   -0.4710324653    2.5833892704
C       -0.6945169249   -1.8263499401    2.7145613106
N       -1.5100185818   -0.9135728344    5.4940174065
O       -0.1987959342   -2.1869380219    4.0474162166
H        1.6111233246   -0.3639466836    7.7446310428
H       -0.6290040026    0.6159939480    8.3830857180
H        1.7723185818   -1.6812888081    5.6055813909
H       -2.5706883239    0.2011387913    6.8697582453
H        0.4231660455    0.6768849589    0.7330291463
H        1.4640623958    1.4263516658    1.9390748489
H        2.3183306125   -0.8391070152    1.2647988385
H        1.9098721050   -0.7934770139    2.9752248625
H       -0.0861064855    0.8066797260    3.7510181145
H       -0.9888545493    1.6514249105    2.5075671758
H        0.1402989729   -1.9350804727    0.7448333177
H        1.0191875094   -2.8792125963    1.9493959542
H       -2.2194131328   -0.3989836039    3.2930775146
H       -1.8307598684   -0.4660159203    1.5746116939
H       -1.4136489359   -2.6152736134    2.4704343124
28   
Generated by ForceBalance from scan.xyz: Frame 13 of 24
C        0.6553247639   -0.4551957958    7.2134408947
C       -0.6399855314   -0.0464429019    7.5633786279
C        0.8525333047   -1.1160310703    6.0074119565
C       -1.6749137599   -0.3383483706    6.6777112071
C       -0.2665867041   -1.3562520860    5.1855916457
C        0.8028525909    0.5766608566    1.6608868387
C        1.4790561339   -0.7944905730    1.8094540699
C       -0.3220552860    0.7604439175    2.6909169308
C        0.4570359189   -1.9374882122    1.7314673610
C       -1.3313692468   -0.3958214802    2.6311198928
C       -0.6647201481   -1.7680585006    2.7591181516
N       -1.5059127663   -0.9903667890    5.5147559378
O       -0.0414078357   -2.0632808190    4.0522709340
H        1.4978051132   -0.2525880304    7.8701440853
H       -0.8404977665    0.4771109892    8.4931163327
H        1.8327559822   -1.4468244021    5.6796950799
H       -2.6983974351   -0.0470903129    6.9103345270
H        0.3833298814    0.6640375732    0.6485925371
H        1.5448577751    1.3773947921    1.7626972814
H        2.2438527598   -0.9278672228    1.0355512233
H        1.9958592188   -0.8445775253    2.7756268547
H        0.1114535822    0.8228847503    3.6964190340
H       -0.8430498072    1.7097908634    2.5210548974
H        0.0002365315   -1.9636285506    0.7332740600
H        0.9433510636   -2.9057382866    1.8897170231
H       -2.1164655523   -0.2799233721    3.3774286512
H       -1.8157737715   -0.3961819979    1.6449918486
H       -1.4237828448   -2.5450886880    2.6161187197
28   
Generated by ForceBalance from scan.xyz: Frame 14 of 24
C        0.5641753274   -0.4234231303    7.3224032545
C       -0.7747731205   -0.1757182818    7.6601904541
C        0.8570662613   -0.9917549261    6.0892347647
C       -1.7544081417   -0.5245034569    6.7335939810
C       -0.2134255139   -1.3036718898    5.2279764479
C        0.8341601945    0.5384398888    1.5090824571
C        1.4664182759   -0.8541843792    1.6523471549
C       -0.1922266198    0.8065223699    2.6205628910
C        0.3984778906   -1.9562779275    1.7146020719
C       -1.2522902637   -0.3028823513    2.6795088113
C       -0.6260990749   -1.6935507018    2.8192247211
N       -1.4913230547   -1.0871681904    5.5414075934
O        0.1082730856   -1.9178759918    4.0648374061
H        1.3661834524   -0.1689628452    8.0109140152
H       -1.0489510698    0.2706453859    8.6110852745
H        1.8736242743   -1.1988340890    5.7707820100
H       -2.8077713147   -0.3559105699    6.9537046144
H        0.3330611357    0.6092689867    0.5331813353
H        1.6136464141    1.3094748078    1.5174555084
H        2.1508092507   -1.0488358468    0.8184498872
H        2.0664553782   -0.8898650010    2.5693518768
H        0.3238074439    0.8737962345    3.5866986016
H       -0.6805133139    1.7751117897    2.4626321903
H       -0.1420630585   -2.0089306368    0.7606096822
H        0.8603460315   -2.9355684333    1.8786758773
H       -1.9749660196   -0.1272289148    3.4754480911
H       -1.8117666422   -0.3187245189    1.7342437939
H       -1.4211298054   -2.4473482356    2.7872351036
28   
Generated by ForceBalance from scan.xyz: Frame 15 of 24
C        0.4716857237   -0.4252131509    7.4540011923
C       -0.8940500767   -0.3230585209    7.7600038781
C        0.8526899410   -0.8827746695    6.1992353116
C       -1.8095656469   -0.6956171421    6.7789988652
C       -0.1597487889   -1.2318275077    5.2839262633
C        0.8413118418    0.4964238700    1.3382588668
C        1.4398759588   -0.9067466945    1.5184096039
C       -0.0813698010    0.8678925348    2.5092988017
C        0.3468405502   -1.9634741844    1.7387784704
C       -1.1718298745   -0.1926329377    2.7180347173
C       -0.5795298690   -1.5943953729    2.8969508580
N       -1.4608437190   -1.1493338088    5.5625436954
O        0.2483323360   -1.7290482018    4.0926162669
H        1.2260931393   -0.1452873763    8.1850913124
H       -1.2358349704    0.0331262368    8.7268894272
H        1.8930181404   -0.9771999762    5.9050500478
H       -2.8800131670   -0.6362954478    6.9713372207
H        0.2638870600    0.5267129085    0.4032243331
H        1.6426418900    1.2377184383    1.2355119766
H        2.0448527380   -1.1773905034    0.6452090852
H        2.1133072493   -0.9069420032    2.3833816849
H        0.5130878178    0.9651050591    3.4267884879
H       -0.5450022446    1.8455258276    2.3336990609
H       -0.2696400977   -2.0579193140    0.8356020855
H        0.7902499391   -2.9462449021    1.9311342887
H       -1.8189376838    0.0563891435    3.5590169241
H       -1.8121927831   -0.2389014705    1.8267531412
H       -1.3938770205   -2.3221600336    2.9847597483
28   
Generated by ForceBalance from scan.xyz: Frame 16 of 24
C        5.8349968610    4.9481814436   -1.9731711518
C        6.8455585525    3.9793952017   -2.0840792584
C        4.5113912176    4.5410552609   -1.8793334485
C        6.4627099522    2.6414940639   -2.0978337646
C        4.2403456575    3.1579562106   -1.9023024979
C        1.0523221230   -0.5048912365    0.0955836963
C        0.5557832258   -0.0521975959   -1.2848766393
C        2.5813238873   -0.4107666982    0.1906850372
C        1.0622527010    1.3565254112   -1.6276152052
C        3.0885440847    0.9999581486   -0.1499564426
C        2.5825592245    1.4269461326   -1.5295690843
N        5.1862782211    2.2263187921   -2.0127695461
O        2.9348968865    2.7987054543   -1.8541933976
H        6.0820889861    6.0067901153   -1.9570016617
H        7.8931107005    4.2547803254   -2.1566548468
H        3.6901858687    5.2447632865   -1.7894940956
H        7.2097431646    1.8534957730   -2.1835936550
H        0.7209067014   -1.5297325577    0.3002946440
H        0.6020463610    0.1332676764    0.8683658413
H        0.9076766755   -0.7613479900   -2.0465949950
H       -0.5392551072   -0.0707090805   -1.3237715457
H        2.9204810996   -0.6901086741    1.1946595969
H        3.0331922869   -1.1334967847   -0.5024643091
H        0.7492069127    1.6503520941   -2.6353032910
H        0.6335692602    2.0877277751   -0.9305433291
H        2.7179281834    1.7175614361    0.5946619976
H        4.1788526230    1.0279949779   -0.1264861514
H        3.0359086371    0.7774147350   -2.2880434579
28   
Generated by ForceBalance from scan.xyz: Frame 17 of 24
C        5.8555802852    4.9593934924   -2.1001768492
C        6.8376082131    3.9660680642   -2.2518588586
C        4.5409331374    4.5845911025   -1.8641056818
C        6.4355993255    2.6378231630   -2.1564644700
C        4.2484971529    3.2070050235   -1.7868775746
C        1.0221540545   -0.5737051331    0.0218486071
C        0.6183028795   -0.0615429623   -1.3684213737
C        2.5354216931   -0.4403958529    0.2439675465
C        1.1016586177    1.3781646124   -1.5998016727
C        3.0148422648    1.0010350767    0.0116965897
C        2.6076481570    1.4821939948   -1.3815384968
N        5.1667443506    2.2530739495   -1.9277190227
O        2.9511769270    2.8790984687   -1.5767407000
H        6.1184086843    6.0122752783   -2.1658933511
H        7.8775837954    4.2166322836   -2.4363743640
H        3.7417229882    5.3082257060   -1.7402993357
H        7.1594294388    1.8314584773   -2.2665859550
H        0.7101656889   -1.6174468893    0.1456365167
H        0.4918944536    0.0076144178    0.7886992758
H        1.0515622566   -0.7181680146   -2.1353493552
H       -0.4692679352   -0.1112156166   -1.4938787151
H        2.8032923764   -0.7605193835    1.2572794873
H        3.0643547743   -1.1126709816   -0.4453559665
H        0.8552259477    1.7151357522   -2.6125492568
H        0.5974938301    2.0583806611   -0.9015513776
H        2.5608044882    1.6695138102    0.7551048814
H        4.0998507462    1.0687573341    0.1217327608
H        3.1384038983    0.8925872780   -2.1361931756
28   
Generated by ForceBalance from scan.xyz: Frame 18 of 24
C        5.8575241640    4.9694800611   -2.2055458590
C        6.8243269129    3.9756470940   -2.4341406232
C        4.5751185643    4.5965723313   -1.8308508709
C        6.4407258388    2.6489025419   -2.2694414259
C        4.2989451891    3.2199225462   -1.6942254077
C        0.9684130027   -0.6082156176   -0.0584120019
C        0.6902042117   -0.0459324842   -1.4602406530
C        2.4560562506   -0.4885408526    0.3025947859
C        1.1924876375    1.3997332478   -1.5968749482
C        2.9524364741    0.9587076319    0.1624659752
C        2.6744151123    1.4908651208   -1.2427964526
N        5.2038514008    2.2661318206   -1.9029751824
O        3.0371763388    2.8944394316   -1.3249753440
H        6.1068012556    6.0213202150   -2.3215948726
H        7.8390620223    4.2250547811   -2.7281793526
H        3.7882870081    5.3204650197   -1.6448303702
H        7.1538588772    1.8421386926   -2.4331594391
H        0.6463489853   -1.6545762865   -0.0000400375
H        0.3720082771   -0.0525527637    0.6782614329
H        1.1903458783   -0.6765545196   -2.2080888562
H       -0.3818468735   -0.0881511725   -1.6838369594
H        2.6319276656   -0.8442373386    1.3241704605
H        3.0437738848   -1.1386177152   -0.3598397038
H        1.0361536543    1.7726949431   -2.6150342084
H        0.6282172964    2.0563850606   -0.9224206262
H        2.4360509363    1.6036164462    0.8851108219
H        4.0250767238    1.0234386793    0.3697387216
H        3.2719797092    0.9354531498   -1.9701836248
28   
Generated by ForceBalance from scan.xyz: Frame 19 of 24
C        5.8323178654    4.9985903842   -2.2154890155
C        6.7578605777    4.0250446133   -2.6284440034
C        4.6057651888    4.5981859877   -1.7066258981
C        6.3917459036    2.6892878965   -2.5020308520
C        4.3415609401    3.2143384007   -1.6260049620
C        0.8948802072   -0.6082983861   -0.1048381395
C        0.7807457191   -0.0517599295   -1.5315230809
C        2.3351620924   -0.5068476515    0.4176358072
C        1.3121291966    1.3875976369   -1.6171315844
C        2.8627093066    0.9334235919    0.3280544862
C        2.7468296192    1.4654548086   -1.0991692209
N        5.2088515466    2.2801113540   -2.0080740792
O        3.1358705217    2.8652329041   -1.1167712513
H        6.0700593218    6.0565964979   -2.2936143688
H        7.7282626139    4.2963928044   -3.0322008103
H        3.8527135882    5.3059551980   -1.3754519611
H        7.0744475073    1.8968654477   -2.8057454664
H        0.5528287565   -1.6494963673   -0.0758317944
H        0.2295759324   -0.0387342906    0.5586346114
H        1.3534758383   -0.6919389650   -2.2165029451
H       -0.2603952909   -0.0834482654   -1.8722832869
H        2.3919043769   -0.8596751145    1.4536739210
H        2.9831647082   -1.1679475621   -0.1738125196
H        1.2764700012    1.7553769960   -2.6486309471
H        0.6829937623    2.0549434342   -1.0144047706
H        2.2830567479    1.5875765198    0.9916943565
H        3.9083311546    0.9854615404    0.6505639119
H        3.4167985310    0.9095679118   -1.7574243607
28   
Generated by ForceBalance from scan.xyz: Frame 20 of 24
C        5.8624615812    5.0030046306   -2.1454886776
C        6.6620229876    4.0685408195   -2.8255869580
C        4.7030624449    4.5755340741   -1.5158362532
C        6.2424775658    2.7426480149   -2.8323385051
C        4.3753683864    3.2045707722   -1.5879843777
C        0.8481051198   -0.5966321976   -0.1561894279
C        0.9293693235   -0.0951715203   -1.6054392440
C        2.2061491049   -0.4769478598    0.5507390948
C        1.4740347099    1.3401452452   -1.6723935968
C        2.7497178990    0.9586537988    0.4818670522
C        2.8242003237    1.4383997190   -0.9659574838
N        5.1214350623    2.3081004304   -2.2282061972
O        3.2341854645    2.8327026265   -0.9596960605
H        6.1458110463    6.0520401993   -2.1101515234
H        7.5768369643    4.3617231871   -3.3310261732
H        4.0489699649    5.2529690543   -0.9764635153
H        6.8264807109    1.9797549604   -3.3453885026
H        0.5003961742   -1.6361122003   -0.1342597033
H        0.1027413867   -0.0026097528    0.3903919760
H        1.5867755734   -0.7604411870   -2.1817528334
H       -0.0563862700   -0.1410546112   -2.0821451323
H        2.1220102530   -0.7924019114    1.5969293581
H        2.9228723182   -1.1600730803    0.0747601051
H        1.5826670114    1.6678861623   -2.7121918095
H        0.7718385324    2.0298018169   -1.1865953469
H        2.0922924188    1.6348830121    1.0433105562
H        3.7439561945    1.0215367695    0.9379036679
H        3.5714465616    0.8601119448   -1.5114527679
28   
Generated by ForceBalance from scan.xyz: Frame 21 of 24
C        5.9078410702    4.9677781749   -2.1000284362
C        6.5222791002    4.0845323315   -3.0039506115
C        4.8265762938    4.5298771376   -1.3496563075
C        6.0052408438    2.7971578921   -3.1027570328
C        4.3875691760    3.2014483951   -1.5324660267
C        0.8319859280   -0.5889949564   -0.2291779384
C        1.1068602530   -0.1325685066   -1.6695113390
C        2.0830408914   -0.4435123614    0.6498814429
C        1.6556139762    1.3022194418   -1.7070853455
C        2.6323633370    0.9913063057    0.6132725653
C        2.8957384447    1.4276248498   -0.8252992527
N        4.9549095375    2.3542329647   -2.3878000589
O        3.3237227474    2.8152906553   -0.7881154031
H        6.2742358112    5.9848428220   -1.9846132656
H        7.3708480489    4.3875730919   -3.6093003757
H        4.3166291256    5.1673229157   -0.6345947047
H        6.4445327382    2.0754443545   -3.7900640268
H        0.4833280781   -1.6283664514   -0.2210710685
H        0.0208280733    0.0194211293    0.1939871705
H        1.8359863379   -0.8118445200   -2.1318482937
H        0.1939572138   -0.1978482364   -2.2723609959
H        1.8589874713   -0.7285312265    1.6841191907
H        2.8566550614   -1.1381060910    0.2947942301
H        1.9092178994    1.5964103413   -2.7310512068
H        0.8942642293    2.0041487236   -1.3432101590
H        1.9076221079    1.6801749540    1.0660034546
H        3.5585502377    1.0704104142    1.1930313775
H        3.7038641363    0.8299706579   -1.2522318637
28   
Generated by ForceBalance from scan.xyz: Frame 22 of 24
C        5.8733989131    4.9600663462   -2.1272027229
C        6.3691635768    4.1118336313   -3.1318665409
C        4.8884771808    4.4940318042   -1.2688599280
C        5.8382106958    2.8290780075   -3.2163572638
C        4.4244252005    3.1739671222   -1.4480606336
C        0.8188897603   -0.5726459801   -0.3065610099
C        1.2561893880   -0.1305294817   -1.7105606678
C        1.9741749794   -0.4535030327    0.6984508002
C        1.8443449638    1.2888751113   -1.6945400670
C        2.5630036314    0.9656415969    0.7137967904
C        2.9908196081    1.3847366415   -0.6894155528
N        4.8803671623    2.3586947312   -2.3966178252
O        3.4627751539    2.7544101114   -0.5916309246
H        6.2559883278    5.9718986340   -2.0186495757
H        7.1391298439    4.4379463343   -3.8240789317
H        4.4717662798    5.1036589591   -0.4735984552
H        6.1881602403    2.1343480835   -3.9786707584
H        0.4452017590   -1.6030310441   -0.3322394084
H       -0.0165230332    0.0581389942    0.0271750329
H        2.0112248361   -0.8310533699   -2.0926867192
H        0.4106048176   -0.1740670167   -2.4063753040
H        1.6358581477   -0.7248837259    1.7048972145
H        2.7616928517   -1.1708741702    0.4295516561
H        2.2081044828    1.5701481917   -2.6873417951
H        1.0696606815    2.0118427137   -1.4077878667
H        1.8125970744    1.6770233452    1.0818929466
H        3.4225809328    1.0250467053    1.3902390768
H        3.8216265244    0.7597560933   -1.0283385673
28   
Generated by ForceBalance from scan.xyz: Frame 23 of 24
C        5.7731400227    4.9867776824   -2.1746198132
C        6.2202703143    4.1636393981   -3.2217176628
C        4.8930725327    4.4718503184   -1.2338454342
C        5.7512089593    2.8546144808   -3.2619063434
C        4.4843189138    3.1294555735   -1.3748708136
C        0.7745543217   -0.5050227476   -0.3782370132
C        1.3421970444   -0.0814042346   -1.7401591302
C        1.8529061745   -0.4477543871    0.7133538639
C        2.0073044124    1.3020637791   -1.6685832578
C        2.5176664025    0.9357015772    0.7745102518
C        3.0889077404    1.3224707969   -0.5866390974
N        4.8980609732    2.3354606964   -2.3604873183
O        3.6437795858    2.6543386820   -0.4247443741
H        6.1099249345    6.0176666659   -2.0984798685
H        6.9075361331    4.5278278256   -3.9789715215
H        4.5160615803    5.0611817202   -0.4041985797
H        6.0684041566    2.1775152264   -4.0538476010
H        0.3508193209   -1.5143535998   -0.4395263092
H       -0.0501970211    0.1678853827   -0.1059342873
H        2.0830789710   -0.8216827195   -2.0717674475
H        0.5509382452   -0.0722910393   -2.4983711062
H        1.4221166834   -0.6945854215    1.6903608334
H        2.6172892751   -1.2095675819    0.5075010899
H        2.4454602908    1.5678781812   -2.6335789359
H        1.2572689567    2.0645303858   -1.4204622539
H        1.7805870095    1.6921712167    1.0721493904
H        3.3163338860    0.9517315762    1.5241945563
H        3.9005586345    0.6434852487   -0.8669987019
28   
Generated by ForceBalance from scan.xyz: Frame 24 of 24
C        5.6425740171    5.0090374494   -2.2044044137
C        6.0763879559    4.2298023455   -3.2889984225
C        4.8792830215    4.4186989867   -1.2065207924
C        5.7168233923    2.8853624162   -3.3067840721
C        4.5740701430    3.0482223954   -1.3291542442
C        0.7336724403   -0.4185429542   -0.4177512419
C        1.4108305816   -0.0609908878   -1.7474732666
C        1.7503520688   -0.4253147476    0.7321001126
C        2.1821744023    1.2654538485   -1.6562710870
C        2.5192451862    0.9016903818    0.8058970362
C        3.2094846305    1.2137554463   -0.5203609641
N        4.9826891816    2.2932838131   -2.3481056243
O        3.8655533220    2.4943159858   -0.3156311248
H        5.8961274357    6.0645299089   -2.1442496202
H        6.6723178033    4.6526142393   -4.0918505160
H        4.5147683829    4.9723519999   -0.3473051094
H        6.0307843181    2.2399476188   -4.1260702230
H        0.2371256160   -1.3931809623   -0.4923601770
H       -0.0503552398    0.3201608905   -0.2016045358
H        2.1061711652   -0.8635512196   -2.0292086042
H        0.6679519749    0.0016806609   -2.5507782615
H        1.2479239978   -0.6146156430    1.6874868625
H        2.4607022870   -1.2501709997    0.5838485037
H        2.6790710708    1.4787926144   -2.6040673855
H        1.4847891370    2.0886256561   -1.4511302254
H        1.8290850761    1.7229861301    1.0352746384
H        3.2646112423    0.8748230813    1.6084908543
H        3.9769615008    0.4656273350   -0.7480044797
