19   

C        5.6932773913    1.6990736196    0.7935228893
C        4.4442748577    1.8920241299    0.2900666857
C        5.3732873779    0.0755162514   -0.6115990430
C        4.9166906812   -1.4365495204   -2.4760919078
C        4.0966736098   -0.4280632542   -3.2747157297
C        6.6450788309   -2.0267172510   -0.8312935160
N        6.2428211123    0.5563394509    0.2389849651
N        4.2237584167    0.8636253319   -0.6134491439
N        5.6143152192   -1.1089326371   -1.3224836136
O        4.9361914834   -2.5756203117   -2.9329356719
H        6.1784195271    2.3388103883    1.5216238295
H        3.7666038747    2.6903879397    0.5699170400
H        3.9493881365   -0.7737997413   -4.3016890457
H        4.5022833590    0.5838571502   -3.2003390807
H        3.0979252662   -0.3905175549   -2.8344161094
H        6.3421512328   -2.3835051974    0.1582722629
H        7.5566678296   -1.4797469122   -0.5704660872
H        6.8445281975   -2.8758057398   -1.4926125794
H        3.3803502621    0.6736291346   -1.1416131170
19   

C        5.5840389285    1.8673844772    0.8674290433
C        4.3114198884    1.9506077307    0.3921932405
C        5.3624324283    0.1998571563   -0.5022440921
C        4.8780776198   -1.4233730131   -2.2495734966
C        4.0634818305   -0.4794998120   -3.1279053195
C        6.7439690642   -1.8383048458   -0.7034111741
N        6.2123595641    0.7646258367    0.3152760012
N        4.1524561577    0.8917622333   -0.4890134281
N        5.6782826483   -0.9723307117   -1.2065249782
O        4.7801427372   -2.6183592180   -2.5110049425
H        6.0329408298    2.5555782705    1.5744006121
H        3.5784373659    2.6974525008    0.6750153383
H        3.9995174028   -0.8815677559   -4.1427463161
H        4.4106845731    0.5557150576   -3.0838364080
H        3.0248839802   -0.5261668766   -2.7924538715
H        6.3872517511   -2.2958632602    0.2250264582
H        7.6029767635   -1.2596605493   -0.3495141458
H        7.0120630917   -2.6433204458   -1.3952130078
H        3.3157176674    0.6263265885   -0.9954879641
19   

C        5.5880754001    1.8986898138    0.8615897035
C        4.2963181658    1.9088594938    0.4314625938
C        5.4151098978    0.2256854549   -0.5053914305
C        4.8711577468   -1.4411266316   -2.1636188214
C        4.0916274785   -0.5355128638   -3.1103188592
C        6.8454348899   -1.7758577963   -0.7223722731
N        6.2609526569    0.8369402897    0.2817071440
N        4.1675641365    0.8449686740   -0.4487447790
N        5.7751718560   -0.9236080095   -1.2311708678
O        4.6331686674   -2.6415839076   -2.2340100888
H        6.0204440032    2.6096071915    1.5563128825
H        3.5314626948    2.6109924016    0.7429920095
H        4.1290003442   -0.9674671841   -4.1139722926
H        4.4181736834    0.5072942482   -3.0878840411
H        3.0262236250   -0.6391313591   -2.8911385088
H        6.4916177315   -2.2314659473    0.2083603926
H        7.7055348711   -1.1887175166   -0.3854387881
H        7.1027892648   -2.5886439144   -1.4091049687
H        3.3306944841    0.5322325816   -0.9279495415
19   

C        5.5870946153    1.8282883156    0.8926598725
C        4.2797887845    1.8748153414    0.5136309034
C        5.3471178713    0.2494919533   -0.5699617350
C        4.6429329038   -1.3052398148   -2.2444158041
C        3.9663564530   -0.3481848803   -3.2174822388
C        6.6817377597   -1.7900105026   -0.9227508144
N        6.2291421228    0.8025021290    0.2199901558
N        4.1079319155    0.8717824053   -0.4286285042
N        5.6677691131   -0.8520849436   -1.3887237520
O        4.1975095308   -2.4435198834   -2.1805191631
H        6.0512172197    2.4897103864    1.6152145503
H        3.5332734182    2.5593937853    0.8997064749
H        4.0941958839   -0.7582069057   -4.2226800827
H        4.3523803096    0.6732041802   -3.1648781010
H        2.8812998893   -0.4239776009   -3.1121550283
H        6.3178817437   -2.2430025902    0.0056003131
H        7.5904677627   -1.2710435195   -0.6017485167
H        6.8619212999   -2.5997240528   -1.6369563286
H        3.2508496806    0.5941213427   -0.8942373505
19   

C        5.6169283581    1.8367727515    0.8638768360
C        4.2928395067    1.8413250252    0.5437617680
C        5.3603596102    0.2449684055   -0.5795970216
C        4.5605545391   -1.3186584418   -2.1670368232
C        3.9586260471   -0.4345813854   -3.2497172782
C        6.6709147352   -1.7996702654   -0.9348505729
N        6.2605134821    0.8281344153    0.1667328008
N        4.1097885309    0.8295711957   -0.3870791615
N        5.6770593074   -0.8496166292   -1.4150290401
O        3.9705948559   -2.3516530787   -1.8858742668
H        6.0918067871    2.5155164256    1.5629789643
H        3.5431087550    2.5030089314    0.9620471921
H        4.2594580251   -0.8658785889   -4.2078669331
H        4.3367584640    0.5907503803   -3.2212651750
H        2.8707932236   -0.5366834987   -3.2766625787
H        6.3059058681   -2.2251385927    0.0061649038
H        7.5984490613   -1.2950080453   -0.6463078799
H        6.8198465840   -2.6290414278   -1.6332754381
H        3.2417707875    0.5186914722   -0.8105809778
19   

C        5.3806209958    1.5835998984    0.9276681478
C        4.0299340279    1.5967088390    0.7379685726
C        4.9345603535   -0.1842832973   -0.2290727010
C        4.0964539167   -1.4620856498   -2.0321278832
C        4.5362328124   -1.1923651384   -3.4620609511
C        6.3987346195   -1.8956114567   -1.1566188642
N        5.9274261945    0.4622929468    0.3233421563
N        3.7275783591    0.4660306180   -0.0070001035
N        5.0462206217   -1.3963375084   -0.9376130915
O        2.9913703967   -1.9307127146   -1.8440063064
H        5.9416766400    2.3343991186    1.4724203143
H        3.3419475349    2.3434153485    1.1174056893
H        5.1751262362   -2.0190767699   -3.7806172218
H        5.2096465843   -0.3318274638   -3.4952016727
H        3.6829484187   -1.1331771222   -4.1429745445
H        6.9322542297   -1.9997654578   -0.2059922641
H        6.9723804768   -1.1381016065   -1.7015940522
H        6.4050849490   -2.8128141821   -1.7535992516
H        2.8226125033    0.1142278000   -0.3125486507
19   

C        5.4550881178    1.6995037062    1.1007641631
C        4.1059314482    1.7455161238    0.9055064943
C        4.9817401502   -0.0178923634   -0.1203545616
C        4.0961799830   -1.3096867484   -1.9090743072
C        4.4989502162   -1.3978238023   -3.3733599511
C        6.4276696795   -1.7191964315   -1.1087750821
N        5.9839980282    0.5901965626    0.4590556285
N        3.7874324448    0.6477049281    0.1195430592
N        5.0813666212   -1.2066627918   -0.8747583365
O        2.9405227524   -1.5771159500   -1.6213254392
H        6.0275943612    2.4195140511    1.6743836037
H        3.4296304612    2.4916456490    1.3062266090
H        4.9660424044   -2.3714307813   -3.5376699063
H        5.3008380567   -0.6883699113   -3.5934025910
H        3.6306258573   -1.3241877073   -4.0336102403
H        6.9817512820   -1.8047173553   -0.1680067240
H        6.9924009570   -0.9711815386   -1.6756317531
H        6.4255661087   -2.6450793308   -1.6917060460
H        2.8808415431    0.3194773992   -0.2093526398
19   

C        5.4762395344    1.6634946929    1.2578078237
C        4.1333588469    1.7512228030    1.0371697828
C        4.9988616880    0.0445760554   -0.0923241671
C        4.1121311346   -1.2190488885   -1.9218711512
C        4.4692412725   -1.5534402036   -3.3632904855
C        6.4534869664   -1.6113396525   -1.1599799497
N        5.9985341855    0.5914419917    0.5504372642
N        3.8139292433    0.7177031389    0.1691999876
N        5.1095229229   -1.0878165116   -0.9286517277
O        2.9308420519   -1.3103564484   -1.6040316861
H        6.0491907374    2.3294601865    1.8929504581
H        3.4617002343    2.4818753189    1.4724985323
H        4.7755996363   -2.6015654524   -3.3967780250
H        5.3597650837   -1.0064342092   -3.6830617390
H        3.6050005311   -1.4444884700   -4.0240487053
H        6.9995133467   -1.7209960804   -0.2169680399
H        7.0309791086   -0.8497499070   -1.6949586955
H        6.4581837903   -2.5199460901   -1.7690057866
H        2.9123283216    0.4290212087   -0.2088970767
19   

C        5.4768833525    1.5961619301    1.3806318695
C        4.1395220191    1.7181899554    1.1460975165
C        5.0035037291    0.0884007536   -0.0974115213
C        4.1268874998   -1.1481314393   -1.9718924009
C        4.4380811589   -1.6599999122   -3.3722245572
C        6.4770265215   -1.5041355670   -1.2420988098
N        5.9979241596    0.5744105014    0.6014888405
N        3.8242153477    0.7573346453    0.1973892284
N        5.1323807022   -0.9753308119   -1.0157764821
O        2.9373507385   -1.0866521317   -1.6585741076
H        6.0472096868    2.2044451693    2.0733695093
H        3.4689290869    2.4237354744    1.6223912065
H        4.6958018545   -2.7187030024   -3.2914038415
H        5.3493083937   -1.2008599086   -3.7637043854
H        3.5697701709   -1.5767909456   -4.0314231907
H        7.0151574436   -1.6339035606   -0.2970771307
H        7.0637274472   -0.7294917098   -1.7473680258
H        6.4945897617   -2.3968259719   -1.8734013050
H        2.9287563693    0.5100643181   -0.2234084743
19   

C        5.4666569058    1.5451771354    1.4634974740
C        4.1306710116    1.6814261851    1.2318208897
C        5.0025798761    0.1387882149   -0.1175211257
C        4.1332255639   -1.0898058520   -2.0166086406
C        4.3993652081   -1.7502284160   -3.3638653269
C        6.5008452206   -1.3796601361   -1.3313142151
N        5.9923728273    0.5802812230    0.6179377035
N        3.8224089056    0.7865080640    0.2188559702
N        5.1519447675   -0.8567666889   -1.1037988212
O        2.9480130095   -0.8983332830   -1.7273491415
H        6.0332437972    2.1052924129    2.1986249078
H        3.4567878565    2.3540413800    1.7492370674
H        4.6681568592   -2.7934133397   -3.1808624490
H        5.3001731909   -1.3390508010   -3.8262719004
H        3.5157254723   -1.7247634952   -4.0073138858
H        7.0350749028   -1.5262304044   -0.3865342818
H        7.0895022373   -0.5882945821   -1.8073507573
H        6.5367339528   -2.2568963746   -1.9824229265
H        2.9318343083    0.5705356932   -0.2292734315
19   

C        5.4583999765    1.5145505879    1.5655732563
C        4.1221679803    1.6536220323    1.3392365521
C        5.0128609120    0.2138161471   -0.1109250720
C        4.1515105607   -0.9993405249   -2.0336739426
C        4.3819785438   -1.7848309107   -3.3196569886
C        6.5366498052   -1.2206283088   -1.3932946926
N        5.9957327827    0.6161392029    0.6565452196
N        3.8263452876    0.8266677447    0.2667899943
N        5.1822652391   -0.7089122115   -1.1610748494
O        2.9780470428   -0.6921054229   -1.7921698050
H        6.0175922972    2.0279839483    2.3394306169
H        3.4405035097    2.2853518113    1.8964148311
H        4.6897705292   -2.7985748617   -3.0519245778
H        5.2581648274   -1.4016127431   -3.8485418579
H        3.4814585886   -1.8242239243   -3.9385821423
H        7.0711184558   -1.3815713306   -0.4510334971
H        7.1217959470   -0.4133856056   -1.8460904780
H        6.5904637336   -2.0829469350   -2.0620444151
H        2.9414513805    0.6392049601   -0.2051381846
19   

C        5.4752871608    1.2645205135    1.7897986044
C        4.1454601394    1.4152087152    1.5378962387
C        5.0971971470    0.1444168325   -0.0302803070
C        4.2625541102   -0.9875234416   -2.0191965860
C        4.4823915531   -1.8646425593   -3.2477384057
C        6.6528724448   -1.1580564283   -1.4341764844
N        6.0497462551    0.4731552270    0.8073449249
N        3.8927713462    0.7026472498    0.3762265972
N        5.2977519809   -0.6613313039   -1.1682437690
O        3.1025830129   -0.5960474729   -1.8377541648
H        6.0050880553    1.6972366411    2.6307712601
H        3.4402188773    1.9810972130    2.1350165897
H        5.0188436537   -2.7741714793   -2.9676300297
H        5.1994885327   -1.3721388822   -3.9088084808
H        3.5461500995   -2.0731955284   -3.7726688894
H        7.4204497514   -0.7790251372   -0.7524275503
H        6.9268425099   -0.9853982735   -2.4789883654
H        6.6416358399   -2.2517026895   -1.3981834580
H        3.0257628354    0.5633133118   -0.1433825735
19   

C        5.3546167914    1.1771350151    1.8175175164
C        4.0209560291    1.3247909312    1.5816197783
C        4.9862431872    0.1951018818   -0.0800861869
C        4.1543070336   -0.9131748721   -2.0775427053
C        4.3421611913   -1.9011663748   -3.2231490792
C        6.5748888860   -0.9714767132   -1.5421659408
N        5.9389082908    0.4739210321    0.7752595779
N        3.7736952408    0.6982103830    0.3701030457
N        5.2061978404   -0.5191733798   -1.2733950754
O        3.0174366820   -0.4424698669   -1.9521385410
H        5.8802957345    1.5527555784    2.6879979465
H        3.3100928303    1.8350047759    2.2208010519
H        4.9351869928   -2.7579485410   -2.8937106922
H        4.9884557519   -1.4384869042   -3.9730286732
H        3.3885085353   -2.1805196670   -3.6792907608
H        7.3113250636   -0.2236201051   -1.2294144111
H        6.7459081498   -1.3325899136   -2.5590305688
H        6.7919553006   -1.7958263108   -0.8548403869
H        2.9084412975    0.5912865235   -0.1597989801
19   

C        5.3372458214    1.0753280871    1.8018466511
C        4.0036652708    1.2194596308    1.5612312705
C        5.0021074956    0.2158470596   -0.1582102332
C        4.1709624511   -0.8656190422   -2.1609692745
C        4.3414749791   -1.9600548504   -3.2075117587
C        6.6046468881   -0.8585524933   -1.6750580898
N        5.9431187768    0.4519741895    0.7216977297
N        3.7769182827    0.6701710414    0.3086846095
N        5.2372883385   -0.4140378111   -1.3967054875
O        3.0677007869   -0.3118116205   -2.1254978946
H        5.8481688217    1.3999588841    2.7011435692
H        3.2800001036    1.6798431050    2.2235045727
H        4.9638680683   -2.7715676354   -2.8222540049
H        4.9412756347   -1.5539772057   -4.0256228581
H        3.3788065999   -2.2877959090   -3.6091948004
H        7.3391692412   -0.1174366224   -1.3423130892
H        6.7671891954   -1.1880764540   -2.7045080603
H        6.8202304296   -1.7067846594   -1.0167192637
H        2.9196605390    0.5951128943   -0.2390953770
19   

C        5.3150380247    0.9817412503    1.8228499150
C        3.9836150765    1.1273772826    1.5688603706
C        5.0216269830    0.2491359760   -0.1919560992
C        4.1908817053   -0.8063693267   -2.1929669566
C        4.3483840021   -2.0072115038   -3.1165139184
C        6.6375839865   -0.7312807029   -1.7558737327
N        5.9466470284    0.4376615380    0.7148819852
N        3.7825387072    0.6583938464    0.2795567489
N        5.2720326134   -0.2919774950   -1.4709403050
O        3.1267624859   -0.1904223802   -2.2653429500
H        5.8068547576    1.2523780599    2.7502325358
H        3.2450087256    1.5391337022    2.2465498985
H        4.9823039408   -2.7717807726   -2.6604644907
H        4.9199335282   -1.6842890132   -3.9899326306
H        3.3794997171   -2.3725320881   -3.4675584245
H        7.3703329832    0.0046272520   -1.4080088534
H        6.7911505806   -1.0331312807   -2.7956107615
H        6.8516835462   -1.5996216779   -1.1236292495
H        2.9353206137    0.6186173315   -0.2867541330
19   

C        5.2695686319    0.8513629786    1.8372567578
C        3.9460759985    1.0214698103    1.5559362325
C        5.0321349936    0.2690784028   -0.2306364137
C        4.2096191696   -0.7350090991   -2.2420359946
C        4.3492539602   -2.0413724913   -3.0107704136
C        6.6650697373   -0.6170393794   -1.8262641196
N        5.9322862036    0.3869920281    0.7113673905
N        3.7795863489    0.6486161966    0.2304802463
N        5.3026255423   -0.1718376363   -1.5445324477
O        3.1997644851   -0.0703575430   -2.4500358144
H        5.7346794268    1.0517857381    2.7957409349
H        3.1904514657    1.3888929191    2.2404226090
H        4.9533419785   -2.7615115936   -2.4531167767
H        4.9384247014   -1.8390537731   -3.9082656535
H        3.3761931752   -2.4179200660   -3.3374937330
H        7.3986203824    0.1088485544   -1.4596166819
H        6.8161561471   -0.8906339233   -2.8745127159
H        6.8685062453   -1.5050730300   -1.2182081343
H        2.9477992648    0.6617379479   -0.3587002568
19   

C        5.2034585807    0.6960345923    1.7954618117
C        3.8914502693    0.9011105772    1.4839497414
C        5.0275299842    0.2598372261   -0.3124920045
C        4.2258887271   -0.7005713289   -2.3340042161
C        4.3333159165   -2.1166671958   -2.8792226809
C        6.6847427943   -0.5342072125   -1.9204809923
N        5.8982923935    0.3023730638    0.6621749262
N        3.7630519114    0.6220836569    0.1311669548
N        5.3228605458   -0.0853243407   -1.6489074038
O        3.2847938943   -0.0186872719   -2.7070836215
H        5.6386939327    0.8249342750    2.7799276699
H        3.1187381207    1.2319925571    2.1681297714
H        4.8241583661   -2.7700407953   -2.1533125131
H        5.0282015687   -2.1031080752   -3.7218520004
H        3.3686373724   -2.4814371215   -3.2420973493
H        7.4166687990    0.1802029682   -1.5289865826
H        6.8414037154   -0.7745597447   -2.9763023361
H        6.8744006880   -1.4443316786   -1.3412810923
H        2.9486072285    0.6917796664   -0.4768150368
19   

C        5.1706002821    0.5528123985    1.7597320399
C        3.8687491163    0.7941162471    1.4318950910
C        5.0420929564    0.2670736475   -0.3766954571
C        4.2682730954   -0.6372355837   -2.4185950805
C        4.2999979303   -2.1340548391   -2.6819193296
C        6.7241639131   -0.4222327931   -1.9982277749
N        5.8890235906    0.2318274834    0.6185295373
N        3.7695767240    0.6120793477    0.0600816338
N        5.3609683067    0.0182893626   -1.7258755264
O        3.4186085757    0.0309625802   -2.9735878693
H        5.5826200802    0.6078396978    2.7609583456
H        3.0837503824    1.0866613978    2.1196922143
H        4.6720733751   -2.6665895587   -1.8026749986
H        5.0677709692   -2.3276116040   -3.4343858148
H        3.3432984858   -2.4964832388   -3.0674222015
H        7.4501558066    0.2926139116   -1.5968444428
H        6.8798975657   -0.6402130636   -3.0593205474
H        6.9184636397   -1.3420419632   -1.4360150566
H        2.9677688737    0.7387070297   -0.5540469633
19   

C        4.9372967341    2.1303590680   -0.1062315461
C        4.7528434661    1.4230954591    1.0426408805
C        5.1177616214    0.0444428457   -0.6672679184
C        5.7124102520   -0.9309080220   -2.7453680323
C        4.7848508084   -0.2762322298   -3.7589640530
C        5.8039196119   -2.3112575753   -0.6872207127
N        5.1448348014    1.2561611557   -1.1588647954
N        4.8697054356    0.0831824855    0.7013872758
N        5.2667211792   -1.1554139043   -1.3916762686
O        6.8553095542   -1.1594481910   -3.0880408056
H        4.9193408017    3.2113498879   -0.1856870372
H        4.5488961739    1.8461644673    2.0194527433
H        4.5422007696   -1.0276140993   -4.5134526978
H        5.3380201799    0.4612055633   -4.3456254178
H        3.8637685445    0.1006481113   -3.3077003776
H        5.2358273794   -2.5355156420    0.2200379443
H        6.8075694398   -2.0545043724   -0.3301024870
H        5.9172676497   -3.1737620322   -1.3521425215
H        4.7722842244   -0.7280819858    1.3003247296
19   

C        4.8843859473    2.1400511541   -0.0517269966
C        4.7207923760    1.4589327031    1.1152566183
C        5.0646169944    0.0412093625   -0.5683748920
C        5.4870645023   -1.0393651131   -2.6408472350
C        4.5372503772   -0.2745084207   -3.5541857826
C        5.8080693603   -2.3129457795   -0.5410029783
N        5.0796210056    1.2420926443   -1.0865318958
N        4.8411434723    0.1123771636    0.8029280196
N        5.2177708303   -1.1844291132   -1.2487409941
O        6.5081482645   -1.4759734609   -3.1421967057
H        4.8613768162    3.2188557302   -0.1553853184
H        4.5278909806    1.9036607209    2.0846458163
H        4.4242426791   -0.8119325626   -4.4985700621
H        5.0523307050    0.6314539136   -3.8837048406
H        3.5930108771   -0.0203126652   -3.0662074835
H        5.3549108982   -2.4693141949    0.4417994026
H        6.8528728699   -2.0616088077   -0.3270142555
H        5.8343897187   -3.2139344366   -1.1627035114
H        4.7566002898   -0.6854886105    1.4214916351
19   

C        4.8505762584    2.1885757381   -0.0863223428
C        4.6919477868    1.5179613323    1.0868778859
C        5.1004929354    0.0890558059   -0.5739627735
C        5.4538992916   -1.0894995590   -2.6320257115
C        4.5419327313   -0.2484224615   -3.5188508746
C        5.8967872109   -2.2593889099   -0.5023780862
N        5.0876419106    1.2834607967   -1.1060767415
N        4.8595472688    0.1722958930    0.7937000186
N        5.3086192285   -1.1404011529   -1.2294830948
O        6.3332242986   -1.7188285557   -3.2004674808
H        4.7965189360    3.2647780914   -0.2041901933
H        4.4711011362    1.9688100506    2.0474172184
H        4.4058639959   -0.7270728654   -4.4915461140
H        5.0884914860    0.6636317659   -3.7721343050
H        3.6173943818    0.0422272292   -3.0138647939
H        5.5324180784   -2.3389984977    0.5253132874
H        6.9690664353   -2.0564580081   -0.4053328308
H        5.8376712656   -3.1925757866   -1.0722444698
H        4.7917877440   -0.6197312664    1.4217188449
19   

C        4.8598344840    2.0590581927   -0.1108310863
C        4.7266795328    1.4055485240    1.0744944227
C        5.1283740703   -0.0457872463   -0.5702605719
C        5.3302715215   -1.3329061938   -2.6057715207
C        4.4722820019   -0.4167790076   -3.4736706363
C        5.9154038979   -2.4055354781   -0.4669865443
N        5.0933551898    1.1403836418   -1.1191276258
N        4.9088384927    0.0580322139    0.7997399644
N        5.3461698136   -1.2820781450   -1.2054229724
O        6.0058386497   -2.1538158968   -3.2121138834
H        4.7908055482    3.1325119691   -0.2445217220
H        4.5124256194    1.8688067598    2.0305615965
H        4.2721283461   -0.8696439097   -4.4477579758
H        5.0688352112    0.4717852941   -3.6954428556
H        3.5879161885   -0.0561539645   -2.9427098525
H        5.7254030538   -2.3708382492    0.6088830745
H        7.0028469279   -2.3533104616   -0.5897505766
H        5.6675845074   -3.3627879277   -0.9373579859
H        4.8597431943   -0.7246225148    1.4410049041
19   

C        4.8018278227    2.0699153943   -0.0965172260
C        4.7283717802    1.4069074932    1.0880888419
C        5.1710860945   -0.0173801888   -0.5715104615
C        5.2698651203   -1.3650628407   -2.5941668755
C        4.4540064410   -0.4031344133   -3.4541085455
C        6.0243753223   -2.3555876943   -0.4790733900
N        5.0615509532    1.1675138211   -1.1129090603
N        4.9771588894    0.0722458586    0.8036103875
N        5.4409230143   -1.2360574258   -1.2158979676
O        5.7508643486   -2.3138429164   -3.2026253482
H        4.6738165798    3.1386655066   -0.2238549641
H        4.5084107125    1.8553068470    2.0498539158
H        4.2192483414   -0.8341154551   -4.4305048697
H        5.0658897821    0.4850779290   -3.6303305344
H        3.5865101441   -0.0204634071   -2.9111097242
H        5.9664373831   -2.2615772971    0.6083044699
H        7.0848116961   -2.4031939569   -0.7496458823
H        5.6636008654   -3.3157034485   -0.8625653908
H        4.9818774716   -0.7137836290    1.4424336877
19   

C        4.7752961405    2.0765455785   -0.0608759055
C        4.8547249549    1.4145683257    1.1232498812
C        5.3129645443    0.0337188568   -0.5690199481
C        5.3049960859   -1.3859416833   -2.5538607175
C        4.4885947060   -0.4226727106   -3.4122835379
C        6.3139384141   -2.2267870385   -0.4736198712
N        5.0466869289    1.1996951631   -1.0960807400
N        5.2152143687    0.1104407043    0.8172534606
N        5.6548370591   -1.1583545674   -1.2258278946
O        5.6045619103   -2.4281778991   -3.1261852755
H        4.5342781938    3.1271108895   -0.1741028079
H        4.6600445456    1.8439404367    2.0988775565
H        4.2211095515   -0.8597393536   -4.3775862174
H        5.0763525930    0.4852401663   -3.5684093580
H        3.6234358526   -0.0549471922   -2.8556166086
H        5.6698265407   -2.5361686292    0.3546112352
H        7.1685582086   -1.8140885901    0.0724502024
H        6.5944941069   -3.0970276400   -1.0759116107
H        5.3449469674   -0.6680375414    1.4516995120
