48

C     -2.19730   -6.25217   -0.53602
C     -1.87985   -5.13675   -1.26182
C     -2.58505   -4.74586    1.03831
C      0.04527   -0.99670    1.99951
C      1.94821   -2.30541    3.79399
C      0.69671   -1.64902    4.37125
C     -1.73031   -0.96682    3.82550
C      2.92112    0.23689    0.23840
C      2.09422   -1.99528   -0.58033
C      2.43762   -1.51889    2.58342
C     -2.84053   -2.01636    3.61274
C     -0.88355   -3.07643    2.96919
C      3.26011    0.55414   -1.22171
C      2.50161   -1.54687   -1.98627
C      1.76320   -0.76854    0.28311
C     -0.41942   -1.63517    3.32278
C     -3.00532   -4.13643    2.34931
N     -2.59155   -6.02176    0.76753
N      1.36638   -1.16282    1.64508
N     -2.27954   -2.90800    2.59995
O     -0.76537   -0.45265    1.24669
O      3.58975   -0.62337   -1.95624
S     -2.07577   -3.71242   -0.28909
H     -2.15247   -7.27172   -0.90421
H     -1.53870   -5.07980   -2.28757
H      2.75440   -2.34086    4.53453
H      1.72969   -3.33990    3.50835
H      0.35107   -2.18184    5.26466
H      0.92569   -0.62090    4.68162
H     -1.93409   -0.07103    3.23929
H     -1.64570   -0.68619    4.87917
H      3.81777   -0.17021    0.71820
H      2.64544    1.15849    0.76488
H      1.21864   -2.65206   -0.63605
H      2.91757   -2.56853   -0.13751
H      2.93277   -0.60042    2.92969
H      3.19177   -2.09911    2.04313
H     -3.05011   -2.55524    4.55641
H     -3.77943   -1.57995    3.25836
H     -0.31494   -3.53274    2.15517
H     -0.76884   -3.72404    3.86255
H      2.41120    1.06694   -1.70285
H      4.13411    1.20726   -1.28878
H      2.83970   -2.39333   -2.58965
H      1.63967   -1.08539   -2.49553
H      0.88126   -0.28500   -0.14067
H     -4.07462   -3.89770    2.29936
H     -2.87959   -4.89925    3.13810
