37

C     -0.35804   -1.66552    1.30393
C      0.33887   -0.88381    2.23370
C      0.20146   -2.83579    0.77549
C     -2.49978   -7.62466   -4.07534
C     -2.64724   -6.45695   -3.32544
C      1.62165   -1.25753    2.65974
C     -0.32785   -7.93482   -3.12829
C      1.47921   -3.21174    1.19726
C     -0.45836   -6.75599   -2.36131
C     -1.32714   -8.38852   -3.98869
C     -1.64922   -5.99300   -2.45989
C      2.15636   -2.41726    2.12545
C      2.33622   -4.37650    0.83301
C      0.68895   -6.43521   -1.51477
C     -1.15639   -9.64762   -4.80636
C     -1.87785   -4.72470   -1.68082
N      3.51147   -4.47304    1.39753
N      0.80512   -5.41578   -0.72923
N      1.98782   -5.35402   -0.04741
O      4.83584   -2.32026    1.94452
O      3.81899   -3.65921    3.83285
S      3.76094   -3.17145    2.45479
H     -1.35096   -1.36048    0.98532
H     -0.11662    0.01986    2.62912
H     -0.33571   -3.43815    0.05892
H     -3.30496   -7.94474   -4.73345
H     -3.56852   -5.88589   -3.41319
H      2.17548   -0.66278    3.37986
H      0.59116   -8.51187   -3.04241
H      1.51599   -7.15600   -1.57998
H     -1.10752   -9.41779   -5.87676
H     -0.23951  -10.17907   -4.53752
H     -1.99800  -10.33255   -4.65858
H     -1.82292   -4.90772   -0.60314
H     -1.11767   -3.97359   -1.91728
H     -2.86104   -4.30587   -1.91078
H      2.69388   -6.08085   -0.18237
