51

C      2.27974    2.37248   -3.10308
C     -0.30003    5.00268   -3.41655
C      1.03425    3.05451   -2.95036
C      0.94565    4.37722   -3.43380
C     -1.41856    4.29187   -2.95924
C     -0.14244    2.42846   -2.42364
C      0.38237    0.20653    1.12663
C      0.86471   -2.65871    0.93386
C      1.83456    1.68676    5.01167
C      2.49831    1.60402    3.65329
C      1.31918   -1.75684   -0.20954
C     -0.97043   -0.71398   -0.75478
C      1.05140   -1.93249    2.25945
C     -1.40071    0.63241   -1.33340
C      1.02883    0.52770   -1.28549
C      1.71510    0.42338    4.18584
C      0.47962   -0.47540   -0.24906
C      2.16338    5.07625   -3.98034
C     -2.79655    4.90383   -2.97606
C      0.37932    0.07529    3.55923
N      3.31004    1.85247   -3.28400
N     -1.33817    3.04883   -2.47671
N     -0.14828    1.18199   -1.87163
N      0.49350   -0.57654    2.24712
O      0.12772    1.41440    1.19750
H     -0.40905    6.01963   -3.78030
H     -0.18719   -2.93479    0.80138
H      1.44339   -3.58803    0.95577
H      2.46258    1.66182    5.89745
H      0.95224    2.31441    5.10371
H      2.05130    2.16265    2.83752
H      3.58112    1.52403    3.61870
H      2.37787   -1.49912   -0.07263
H      1.24117   -2.27060   -1.17410
H     -1.64928   -1.05680    0.02970
H     -0.94522   -1.47830   -1.54014
H      0.56619   -2.48492    3.07225
H      2.12300   -1.88279    2.50114
H     -2.14867    0.53818   -2.12395
H     -1.80206    1.29569   -0.56198
H      1.68667    1.26167   -0.81608
H      1.60103   -0.00719   -2.04948
H      2.30127   -0.42398    4.53569
H      2.96851    5.10144   -3.23915
H      2.55658    4.54770   -4.85512
H      1.92596    6.10156   -4.27279
H     -3.47945    4.27185   -3.55278
H     -3.19276    4.96056   -1.95700
H     -2.79160    5.90727   -3.40875
H     -0.21175    0.97971    3.41617
H     -0.18180   -0.59894    4.21826
