21

C      2.24330   -1.20990   -0.03806
C      2.89246   -1.94310    0.96134
C      1.22735   -0.30922    0.30018
C      2.52579   -1.78083    2.30103
C      0.85493   -0.14142    1.63761
C      1.50123   -0.88431    2.63547
C     -1.72689   -3.16510    5.14031
C     -0.21539   -1.89668    4.46243
N     -0.91330   -2.16489    5.55783
N     -1.60423   -3.55102    3.88052
N     -0.62160   -2.72113    3.45295
N     -2.70326   -3.80288    6.02571
O     -2.75523   -3.38773    7.18317
O     -3.39308   -4.70229    5.54182
S      1.03407   -0.66298    4.35867
H      2.53107   -1.33745   -1.07801
H      3.68492   -2.63928    0.70113
H      0.72551    0.26459   -0.47393
H      3.02586   -2.34466    3.08301
H      0.06859    0.55685    1.90884
H     -0.28903   -2.76921    2.49646
