45

C     -0.81506    1.69475    3.17502
C      1.31816    2.09267    2.66461
C      0.10406    1.72252    2.09131
C     -1.38090    1.32225    0.17848
C     -0.97212   -1.20838   -2.40433
C     -1.35957    0.91372   -1.29161
C      2.07037   -0.51985   -1.69600
C      3.08989   -1.10969   -0.71682
C      0.99381    1.09083   -0.14547
C      0.85622   -1.38166    0.26510
C      0.80761   -0.27783   -0.82978
C     -0.22562   -2.51788   -2.61799
C      2.00243    2.73249    5.01108
C      3.15180   -1.22275    2.73293
N     -0.20797    2.01615    4.32094
N      1.08184    2.24308    3.99988
N     -0.12228    1.39784    0.73778
N     -0.47026   -0.23329   -1.55232
N      2.23675   -1.89223    0.19922
O     -2.41796    1.57003    0.77979
O     -2.03033   -1.02886   -3.00416
O      4.23488   -3.06256    1.16966
O      1.88941   -3.46500    2.12922
S      2.90812   -2.58380    1.56087
H     -1.86874    1.46462    3.15022
H      2.29544    2.27955    2.24256
H     -2.36984    0.63530   -1.57734
H     -1.07237    1.77952   -1.90473
H      2.42613    0.40783   -2.15311
H      1.87239   -1.22527   -2.49904
H      3.81746   -1.76559   -1.19502
H      3.64529   -0.31836   -0.19231
H      1.90900    1.05639    0.44175
H      1.11895    1.87294   -0.90330
H      0.60724   -0.96207    1.24491
H      0.14585   -2.18524    0.07596
H     -0.98338   -3.30313   -2.65239
H      0.52569   -2.78128   -1.87631
H      0.24902   -2.48921   -3.60403
H      1.93194    3.82049    5.11048
H      1.74604    2.26802    5.96391
H      3.02383    2.45944    4.73638
H      3.56360   -1.66568    3.64160
H      3.86380   -0.51398    2.30670
H      2.19408   -0.74689    2.94863
