37

C      2.87892    0.54629    0.31672
C     -1.50972    4.47901    2.00863
C     -2.77567    4.04119    2.41367
C     -0.66172    3.59426    1.34937
C     -3.17096    2.72411    2.16714
C      2.18552   -0.39469   -0.49668
C     -1.03498    2.25752    1.08934
C      2.86517   -1.38847   -1.28959
C     -2.31670    1.82553    1.52161
C      1.99409   -2.22002   -1.94275
C      0.79407   -0.49369   -0.55938
C     -0.07307    1.44927    0.34687
C      4.36197   -1.52081   -1.41572
C      2.39367   -3.34397   -2.85892
C      4.74917   -2.87040   -2.04148
C      3.87255   -3.19673   -3.25902
C     -2.33864   -0.44767    2.18591
N      3.47150    1.30683    0.97609
N     -0.20882    0.19288    0.08195
O     -2.79271    0.56442    1.27418
S      0.33014   -1.83490   -1.57960
H     -1.19253    5.50019    2.19898
H     -3.45454    4.72236    2.92018
H      0.31932    3.93125    1.02255
H     -4.15268    2.36756    2.46579
H      0.80520    2.00501   -0.00104
H      4.74507   -0.69663   -2.03231
H      4.83107   -1.40449   -0.43250
H      2.23833   -4.30669   -2.35306
H      1.75857   -3.35807   -3.75201
H      5.80615   -2.85404   -2.32720
H      4.63366   -3.66425   -1.29255
H      4.21364   -4.11930   -3.74053
H      3.96784   -2.39316   -3.99994
H     -2.76687   -1.38679    1.83186
H     -2.70007   -0.23272    3.19961
H     -1.24836   -0.52474    2.18131
