22   
Generated by ForceBalance from scan.xyz: Frame 1 of 9
C       -0.2869715547   -3.6211009964   -5.3486314075
C       -1.4816144666   -4.3567301692   -5.3439908374
C       -0.1513886231   -2.5069792602   -4.4729226850
C       -2.3421279879   -4.1921132589   -4.2230622657
C       -1.3190149959   -2.2520059909   -3.7530772375
C       -0.6774135538    0.1167013829   -1.0192758290
C       -1.4981272549   -1.1066585730   -1.4579294513
C        0.2435804906    0.3171553768   -2.2217719658
C       -1.5498523858   -0.9560477714   -3.0020932584
N       -1.9606223066   -3.3422812017   -3.2608735381
O       -0.5808039050    0.0428935689   -3.3633229409
H        0.4983416287   -3.8636757067   -6.0604285385
H       -1.6864818496   -5.1035094825   -6.1052953079
H        0.6257445316   -1.7588844870   -4.5823300244
H       -3.1006730491   -4.9346481969   -3.9763396332
H       -1.3195082418    0.9944954174   -0.8925512940
H       -0.1312993972   -0.0506615433   -0.0863258135
H       -0.9919013176   -2.0374989028   -1.1920002443
H       -2.4965765929   -1.1396057628   -1.0191176739
H        0.6298649048    1.3336783054   -2.3317749733
H        1.0933405903   -0.3824124526   -2.1861130455
H       -2.5299016997   -0.5725902313   -3.3164554697
22   
Generated by ForceBalance from scan.xyz: Frame 2 of 9
C       -0.3576525518   -3.6481488892   -5.2713627070
C       -1.5180764129   -4.4311672859   -5.2358599681
C       -0.2779922465   -2.5091426310   -4.4464023658
C       -2.4198732599   -4.2096393313   -4.1756651730
C       -1.4185955026   -2.2368586115   -3.6842103808
C       -0.7253150792    0.1295531713   -0.9346542830
C       -1.5041549302   -1.1176603163   -1.3773496269
C        0.2078441518    0.3423580770   -2.1258554118
C       -1.5853776782   -0.9420096475   -2.9144615419
N       -2.1732996648   -3.2704511814   -3.2512153541
O       -0.5841567652    0.0245280366   -3.2801222721
H        0.4494755829   -3.8919768335   -5.9578734167
H       -1.6782328956   -5.2398787975   -5.9428788795
H        0.5055146176   -1.7665818321   -4.5486127975
H       -3.2054619645   -4.9300706253   -3.9497576437
H       -1.3944507807    0.9896505003   -0.8257523393
H       -0.1888522485   -0.0135447351    0.0078401806
H       -0.9500819569   -2.0288783025   -1.1357981120
H       -2.4931690846   -1.2032452450   -0.9250281089
H        0.5639079925    1.3694366686   -2.2419448862
H        1.0789369797   -0.3284257568   -2.0662678855
H       -2.5581889885   -0.5172599498   -3.1958109455
22   
Generated by ForceBalance from scan.xyz: Frame 3 of 9
C       -0.3616455362   -3.6341831355   -5.2804405004
C       -1.4676122262   -4.4853660122   -5.1830239254
C       -0.3298527038   -2.4663671903   -4.5045568860
C       -2.4066129839   -4.2304418242   -4.1716059621
C       -1.4413073773   -2.2152289938   -3.6938219973
C       -0.7083907340    0.1162919904   -0.9247776494
C       -1.5092034482   -1.1115085332   -1.3822647446
C        0.2293535723    0.3261533491   -2.1131236566
C       -1.5856955602   -0.9201006031   -2.9173884940
N       -2.2748571662   -3.2045513197   -3.3216091139
O       -0.5641136307    0.0290702591   -3.2717406059
H        0.4482535492   -3.8610378758   -5.9697193191
H       -1.5738513988   -5.3521719244   -5.8290638502
H        0.4380186945   -1.7109987258   -4.6269601723
H       -3.1932395792   -4.9511392043   -3.9511537238
H       -1.3620563745    0.9867378360   -0.8050919304
H       -0.1743822104   -0.0476377783    0.0157150117
H       -0.9719730198   -2.0349057979   -1.1477604756
H       -2.5007109999   -1.1833730929   -0.9328325435
H        0.5995548104    1.3493546131   -2.2193637606
H        1.0911998365   -0.3567573589   -2.0580691875
H       -2.5491062051   -0.4739213325   -3.1958951587
22   
Generated by ForceBalance from scan.xyz: Frame 4 of 9
C       -0.3877602783   -3.6677634485   -5.2395012774
C       -1.5254895953   -4.4777120808   -5.1898440009
C       -0.3496026848   -2.5055022637   -4.4636369039
C       -2.5394133282   -4.1362045394   -4.2874572116
C       -1.4680377057   -2.1989284213   -3.6805684259
C       -0.7774389925    0.0986286019   -0.8271449215
C       -1.4070788595   -1.2075035799   -1.3266559626
C        0.1665630540    0.4444750667   -1.9819750008
C       -1.5360720346   -0.9421303422   -2.8394095216
N       -2.4719353548   -3.0703031259   -3.4800254033
O       -0.4792563839   -0.0281276203   -3.1780604756
H        0.4485637369   -3.9283576835   -5.8838029669
H       -1.6180259624   -5.3647306863   -5.8101051581
H        0.4780869133   -1.8069747169   -4.5124454334
H       -3.4060802678   -4.7838564696   -4.1597571175
H       -1.5415891917    0.8750016203   -0.7127553541
H       -0.2535036071   -0.0108937118    0.1265951936
H       -0.7318739529   -2.0522659838   -1.1534365604
H       -2.3703982426   -1.4449496179   -0.8725720205
H        0.3486341639    1.5174523121   -2.0949448974
H        1.1346823000   -0.0638663880   -1.8666703117
H       -2.4970387179   -0.4516117752   -3.0470524433
22   
Generated by ForceBalance from scan.xyz: Frame 5 of 9
C       -0.3866441805   -3.6658433986   -5.2221525058
C       -1.4909405921   -4.5149444982   -5.1172342277
C       -0.3764289159   -2.4773452106   -4.4890705211
C       -2.5408427622   -4.1292452215   -4.2779139224
C       -1.4772448510   -2.1830805068   -3.6761886290
C       -0.7683149915    0.0757025746   -0.7979928940
C       -1.3922059801   -1.2265282868   -1.3143437177
C        0.1687181115    0.4449337520   -1.9517998624
C       -1.5333695806   -0.9363529623   -2.8211101523
N       -2.5442116829   -2.9930841364   -3.5694136541
O       -0.4715468994   -0.0257713909   -3.1519279109
H        0.4503959117   -3.9228577353   -5.8669580247
H       -1.5451942047   -5.4481448092   -5.6707362614
H        0.4477406285   -1.7748843124   -4.5427737262
H       -3.4210561145   -4.7621858936   -4.1706479453
H       -1.5373252686    0.8448538669   -0.6686250139
H       -0.2394128301   -0.0442577554    0.1516904974
H       -0.7090077120   -2.0687719776   -1.1595901851
H       -2.3511559857   -1.4781343975   -0.8580933568
H        0.3357755067    1.5215383153   -2.0537243904
H        1.1438682041   -0.0510331790   -1.8438820345
H       -2.4940475237   -0.4395501275   -3.0127421571
22   
Generated by ForceBalance from scan.xyz: Frame 6 of 9
C       -0.4004297493   -3.6389846283   -5.2284951419
C       -1.4650077758   -4.5264626707   -5.0481377030
C       -0.4109488303   -2.4203388139   -4.5438338529
C       -2.5454538307   -4.1080769138   -4.2629493948
C       -1.4888792889   -2.1531206429   -3.6921654881
C       -0.7660067955    0.0573330206   -0.7845297368
C       -1.4033912155   -1.2295171156   -1.3225254397
C        0.1773819508    0.4334923949   -1.9307975893
C       -1.5386457822   -0.9148260155   -2.8252903807
N       -2.6006993062   -2.9082402143   -3.6709659801
O       -0.4672655665   -0.0094549695   -3.1389366473
H        0.4277071303   -3.8954841922   -5.8849345960
H       -1.4795504593   -5.5008039533   -5.5283796526
H        0.4049205200   -1.7100746081   -4.6148647419
H       -3.4316929427   -4.7340683594   -4.1657178096
H       -1.5267291395    0.8329125116   -0.6451202575
H       -0.2405557890   -0.0831751466    0.1642339132
H       -0.7295533160   -2.0814036760   -1.1785910949
H       -2.3661716000   -1.4773006951   -0.8719241650
H        0.3579219505    1.5094302058   -2.0150733764
H        1.1460420421   -0.0763910127   -1.8297191571
H       -2.4949649473   -0.4088822512   -3.0129214740
22   
Generated by ForceBalance from scan.xyz: Frame 7 of 9
C       -0.4122497696   -3.6120676275   -5.2378869912
C       -1.4300201536   -4.5333773313   -4.9673754501
C       -0.4416021171   -2.3594865917   -4.6084824122
C       -2.5372977473   -4.0918460180   -4.2267297904
C       -1.4895361510   -2.1291448819   -3.7108456637
C       -0.7637987939    0.0325818618   -0.7729830206
C       -1.4153202939   -1.2373356634   -1.3338517008
C        0.1902830214    0.4131746176   -1.9087015973
C       -1.5379534388   -0.8990957741   -2.8331446745
N       -2.6328479150   -2.8370880380   -3.7683139261
O       -0.4569985431    0.0014910779   -3.1262392727
H        0.4007995171   -3.8726355465   -5.9113886199
H       -1.4018733083   -5.5424304291   -5.3687935698
H        0.3636880218   -1.6403831667   -4.7032054232
H       -3.4251942363   -4.7158178755   -4.1324228712
H       -1.5149840031    0.8160054864   -0.6260847078
H       -0.2453793961   -0.1292756074    0.1762275141
H       -0.7535838574   -2.1001059501   -1.1975741980
H       -2.3840449025   -1.4785566490   -0.8922685335
H        0.3880227077    1.4873570742   -1.9741607128
H        1.1502508725   -0.1137841307   -1.8125657894
H       -2.4896056173   -0.3850273913   -3.0211942568
22   
Generated by ForceBalance from scan.xyz: Frame 8 of 9
C       -0.4228487193   -3.6136176504   -5.2531926739
C       -1.3930477843   -4.5532842556   -4.8816609948
C       -0.4694104849   -2.3252624184   -4.6869722097
C       -2.5257255988   -4.0804984152   -4.1893819436
C       -1.4797941824   -2.1220112267   -3.7403446038
C       -0.7709781012   -0.0028507612   -0.7728864775
C       -1.4218520473   -1.2626955080   -1.3568497438
C        0.1952866440    0.3901903120   -1.8942354856
C       -1.5299516581   -0.9019901977   -2.8523538790
N       -2.6505861873   -2.7803497171   -3.8838177709
O       -0.4391799893   -0.0070192048   -3.1234585005
H        0.3734658634   -3.8881257902   -5.9408072733
H       -1.3266685676   -5.5908767633   -5.1957987345
H        0.3226165152   -1.5957691746   -4.8111734701
H       -3.4180216760   -4.6975762553   -4.0896542939
H       -1.5211168100    0.7808434422   -0.6223283236
H       -0.2621990171   -0.1795540424    0.1788436064
H       -0.7633734097   -2.1290691196   -1.2265322292
H       -2.3952021232   -1.5068575536   -0.9269924139
H        0.3937087887    1.4650901951   -1.9444332476
H        1.1539690501   -0.1381406504   -1.7948408100
H       -2.4776318446   -0.3813987558   -3.0421408605
22   
Generated by ForceBalance from scan.xyz: Frame 9 of 9
C       -0.4140274974   -3.5436017441   -5.2740583188
C       -1.3192155170   -4.5082467473   -4.8042014996
C       -0.5026605067   -2.2096140184   -4.7878326156
C       -2.4958995268   -4.0366937200   -4.1595143417
C       -1.4795620324   -2.0711887607   -3.7999675479
C       -0.7740480792   -0.0701136506   -0.7701849495
C       -1.4742587952   -1.2820179194   -1.3979554723
C        0.1995529060    0.3268468567   -1.8818594273
C       -1.5627512075   -0.8734424849   -2.8858260387
N       -2.6535759791   -2.7118313341   -4.0304509660
O       -0.4821720433    0.0452253344   -3.1160362798
H        0.3787086898   -3.8312957259   -5.9604647701
H       -1.1854953413   -5.5624500417   -5.0282168454
H        0.2678976502   -1.4619825344   -4.9357480489
H       -3.3805348567   -4.6656960293   -4.0639405251
H       -1.4922670801    0.7362670640   -0.5876324050
H       -0.2689357155   -0.3029167160    0.1714189568
H       -0.8542283962   -2.1791363283   -1.2886063053
H       -2.4587538732   -1.4980192446   -0.9786419941
H        0.4658325551    1.3878038043   -1.8776921902
H        1.1234258109   -0.2670266301   -1.8281335312
H       -2.5134344999   -0.3614176038   -3.0799651201
