19   
Generated by ForceBalance from scan.xyz: Frame 1 of 24
C        1.9186066741   -0.9761031246   -0.1598784637
C        3.1428378354   -0.8642376045    0.5062659802
C        0.7597467057   -1.2359801712    0.5796522571
C        3.2036517558   -1.0135193199    1.8945102872
C        0.8238718242   -1.3809552485    1.9676497931
C        2.0485379742   -1.2773141444    2.6491331943
C        0.9803822509   -1.2910193789    5.0628007267
C        1.5714330705   -2.6572768102    4.8257302668
C        2.1659644937   -1.4407613407    4.1273098572
H        1.8669240733   -0.8598737887   -1.2392931791
H        4.0515888143   -0.6595200051   -0.0545355370
H       -0.1990880928   -1.3210361663    0.0739522741
H        4.1617592375   -0.9249004872    2.4025315845
H       -0.0921074373   -1.5787572612    2.5185796508
H        0.0108312689   -1.0652700471    4.6301546286
H        1.1625130890   -0.8118116369    6.0202861555
H        2.1460161877   -3.1235242243    5.6210534681
H        1.0159353781   -3.3496449008    4.1997318149
H        3.1091280963   -1.0837641482    4.5325200698
19   
Generated by ForceBalance from scan.xyz: Frame 2 of 24
C        1.9218080944   -1.0037971742   -0.1636352235
C        3.1493600001   -0.9940027430    0.5079548327
C        0.7400067578   -1.1140341627    0.5749141544
C        3.1882284741   -1.0991217908    1.8999123430
C        0.7831333022   -1.2136486743    1.9692813463
C        2.0079754618   -1.2154095690    2.6547536837
C        0.9147127187   -1.4131735445    5.0599241946
C        1.7396316307   -2.6553836901    4.8264846245
C        2.1143037161   -1.3467518507    4.1393223127
H        1.8871629821   -0.9216064768   -1.2468966482
H        4.0764524390   -0.9038869374   -0.0529686015
H       -0.2206715240   -1.1139676451    0.0655741269
H        4.1477676072   -1.0935350628    2.4131231416
H       -0.1498935657   -1.2840263207    2.5211003273
H       -0.0801176148   -1.3735419391    4.6287165266
H        0.9996702128   -0.9134229874    6.0204117028
H        2.3798183446   -3.0181835730    5.6257131943
H        1.3159129868   -3.4291182637    4.1929448923
H        2.9802755976   -0.8410058505    4.5594785000
19   
Generated by ForceBalance from scan.xyz: Frame 3 of 24
C        1.9152077332   -1.0174485491   -0.1496075085
C        3.1383499223   -1.1139712224    0.5251846188
C        0.7277243480   -0.9929269050    0.5861998488
C        3.1654131453   -1.1918224673    1.9185233076
C        0.7601057099   -1.0653560859    1.9837420339
C        1.9775616275   -1.1726922690    2.6708793262
C        0.8734699175   -1.5404828149    5.0485845824
C        1.9080247958   -2.6242622245    4.8485769916
C        2.0674385732   -1.2741779240    4.1611956429
H        1.8902767601   -0.9577358619   -1.2346704740
H        4.0696809896   -1.1302620580   -0.0357546378
H       -0.2275234824   -0.9085910510    0.0736416154
H        4.1191523609   -1.2734917349    2.4361307098
H       -0.1724937047   -1.0247533243    2.5390716862
H       -0.0983928800   -1.6851688768    4.5882094508
H        0.8385286724   -1.0323034471    6.0077384693
H        2.5791035029   -2.8660241613    5.6679813766
H        1.6365779343   -3.4645663863    4.2163525236
H        2.8320060708   -0.6351542724    4.5979317923
19   
Generated by ForceBalance from scan.xyz: Frame 4 of 24
C        1.9026797905   -1.0284039471   -0.1524799977
C        3.1090088992   -1.2345140970    0.5286120824
C        0.7199745984   -0.8797108088    0.5764129371
C        3.1261515881   -1.2956588959    1.9231712914
C        0.7432898037   -0.9368136585    1.9750688176
C        1.9430482432   -1.1488703079    2.6677529061
C        0.8296002816   -1.6497557328    5.0050767819
C        2.0310404086   -2.5602668920    4.8700666791
C        2.0061809379   -1.2143933110    4.1632979678
H        1.8871472444   -0.9834571873   -1.2384986675
H        4.0348744359   -1.3512358797   -0.0294613103
H       -0.2213889927   -0.7134490787    0.0581912187
H        4.0644770894   -1.4656385495    2.4472462843
H       -0.1801780268   -0.8043820871    2.5321701915
H       -0.0813260592   -1.9520150787    4.4977384086
H        0.6671500548   -1.1463794242    5.9536153993
H        2.6929618136   -2.6793334527    5.7231662349
H        1.9208004144   -3.4449996910    4.2498760294
H        2.6478324243   -0.4584887584    4.6125025645
19   
Generated by ForceBalance from scan.xyz: Frame 5 of 24
C        1.8950996528   -1.0221784231   -0.1472134430
C        3.0759567154   -1.3344196771    0.5371711394
C        0.7262704871   -0.7678209042    0.5762055791
C        3.0830677166   -1.3919381689    1.9327884167
C        0.7390960389   -0.8235673675    1.9743919473
C        1.9152072146   -1.1367668393    2.6699996488
C        0.8186527314   -1.7700629701    4.9714978977
C        2.1494736027   -2.4904358484    4.8989171869
C        1.9530750625   -1.1759536873    4.1682280718
H        1.8868580491   -0.9804257545   -1.2334736556
H        3.9887132837   -1.5366363437   -0.0180768345
H       -0.1951709659   -0.5242490604    0.0528058637
H        3.9994591752   -1.6439461790    2.4622652907
H       -0.1709859471   -0.6193109458    2.5329803403
H       -0.0127268074   -2.2071764016    4.4262576293
H        0.5426359344   -1.2887437114    5.9051506126
H        2.7833998827   -2.4996594670    5.7809790285
H        2.1967299819   -3.3914360564    4.2941309061
H        2.4502612068   -0.3209627365    4.6239881079
19   
Generated by ForceBalance from scan.xyz: Frame 6 of 24
C        1.8928983982   -1.0185475757   -0.1456922337
C        3.0332215715   -1.4434208679    0.5448057506
C        0.7493821550   -0.6492696931    0.5706834213
C        3.0289093558   -1.4973742308    1.9417892253
C        0.7504418901   -0.7046521779    1.9677700115
C        1.8881429703   -1.1288399584    2.6707535144
C        0.8317951279   -1.8993971363    4.9408764038
C        2.2563891323   -2.4164087169    4.9224176146
C        1.8983075450   -1.1520555090    4.1702590849
H        1.8941712382   -0.9792102561   -1.2320847776
H        3.9245233781   -1.7349672794   -0.0055565755
H       -0.1419130792   -0.3208295956    0.0414534296
H        3.9147010804   -1.8325833065    2.4766375210
H       -0.1403093818   -0.4210717588    2.5237013486
H        0.0939530956   -2.4509236252    4.3652844477
H        0.4540119475   -1.4586657958    5.8589301820
H        2.8495294073   -2.3269075927    5.8279354967
H        2.4559790860   -3.3078106649    4.3346675577
H        2.2416465733   -0.2261417166    4.6296792425
19   
Generated by ForceBalance from scan.xyz: Frame 7 of 24
C        1.8888952536   -1.0143330407   -0.1431340228
C        2.9787271781   -1.5419909323    0.5557022723
C        0.7798714181   -0.5375115536    0.5659035295
C        2.9595040033   -1.5910431425    1.9539481570
C        0.7647193237   -0.5915449069    1.9617282072
C        1.8532021856   -1.1196943140    2.6746927873
C        0.8599163081   -2.0327032045    4.9188030023
C        2.3464499353   -2.3235421540    4.9557228085
C        1.8306355224   -1.1371107356    4.1737152510
H        1.9014115491   -0.9763631357   -1.2294913076
H        3.8444626022   -1.9137733143    0.0129075901
H       -0.0729377412   -0.1278082525    0.0299968269
H        3.8114340409   -1.9973309129    2.4935806150
H       -0.1016193040   -0.2284719634    2.5105448125
H        0.2373760967   -2.6935012196    4.3224107971
H        0.3844212137   -1.6450648274    5.8152286604
H        2.8864103084   -2.1348089650    5.8789955314
H        2.6980194016   -3.1844779215    4.3947428370
H        2.0017387086   -0.1648602788    4.6335225280
19   
Generated by ForceBalance from scan.xyz: Frame 8 of 24
C        1.8810862574   -1.0147413431   -0.1447110867
C        2.9110709938   -1.6438567533    0.5592901876
C        0.8229738479   -0.4285894377    0.5611715971
C        2.8844228307   -1.6880410114    1.9583296208
C        0.7984170928   -0.4797556571    1.9560083965
C        1.8265172341   -1.1129612828    2.6755838420
C        0.9133150564   -2.1650846205    4.8917805947
C        2.4225173880   -2.2203445267    4.9925288416
C        1.7676088377   -1.1334616209    4.1726325972
H        1.9014208626   -0.9788389697   -1.2309819675
H        3.7404305845   -2.0960984186    0.0208026887
H        0.0170339960    0.0643924270    0.0228883023
H        3.6990812811   -2.1656699273    2.4958916950
H       -0.0298980507   -0.0307002936    2.5002863142
H        0.4252057318   -2.9163073695    4.2777806757
H        0.3448674608   -1.8447303793    5.7603130156
H        2.8879827472   -1.9397324042    5.9327834206
H        2.9252195780   -3.0268106451    4.4677204147
H        1.7597937983   -0.1450967138    4.6287085731
19   
Generated by ForceBalance from scan.xyz: Frame 9 of 24
C        1.8710599249   -1.0062217257   -0.1442964447
C        2.8269221456   -1.7362547512    0.5666964484
C        0.8724937129   -0.3186954565    0.5563269763
C        2.7863311106   -1.7808535295    1.9651781343
C        0.8325993817   -0.3708106913    1.9505529256
C        1.7865284924   -1.1042343656    2.6782852694
C        0.9824303405   -2.3027609710    4.8625562922
C        2.4696306355   -2.0958915474    5.0357860344
C        1.6816588722   -1.1394922861    4.1706284504
H        1.9045066736   -0.9688559609   -1.2301267487
H        3.6123966062   -2.2668122682    0.0339043281
H        0.1246466581    0.2555849079    0.0148271532
H        3.5497836322   -2.3379084575    2.5005156171
H        0.0495071595    0.1600551294    2.4882829658
H        0.6610519196   -3.1252477749    4.2303538273
H        0.3224072575   -2.0812506909    5.6965466421
H        2.8308575397   -1.7271124036    5.9912720950
H        3.1332318970   -2.8082835580    4.5567092638
H        1.4870257089   -0.1673385153    4.6185621121
19   
Generated by ForceBalance from scan.xyz: Frame 10 of 24
C        1.8757342088   -0.9909120159   -0.1440274482
C        2.7331543731   -1.8286519870    0.5753700139
C        0.9457906383   -0.2080477315    0.5488454931
C        2.6642312226   -1.8830985799    1.9710508877
C        0.8764231220   -0.2689172578    1.9423439615
C        1.7350594356   -1.1039509384    2.6782934981
C        1.0856756043   -2.4334276048    4.8388332343
C        2.5004449350   -1.9594915348    5.0655092874
C        1.5837201371   -1.1606369660    4.1634764592
H        1.9327908350   -0.9463980436   -1.2285452661
H        3.4635669932   -2.4386635255    0.0493442577
H        0.2730037161    0.4490065205    0.0030613736
H        3.3488339847   -2.5346789773    2.5066751898
H        0.1459300829    0.3396990473    2.4715893100
H        0.9396191645   -3.2959773464    4.1952212212
H        0.3651916148   -2.3377682468    5.6463026829
H        2.7480711848   -1.5253684296    6.0297256731
H        3.3078621538   -2.5299794781    4.6184396077
H        1.2147290632   -0.2350429447    4.5985940467
19   
Generated by ForceBalance from scan.xyz: Frame 11 of 24
C        1.8943434748   -0.9679843164   -0.1496501126
C        2.6452987089   -1.9047828458    0.5686647222
C        1.0288929278   -0.1130608304    0.5396214088
C        2.5335096232   -1.9825015372    1.9589086198
C        0.9169414535   -0.1956022716    1.9302991045
C        1.6699463860   -1.1268720655    2.6643141711
C        1.2204648974   -2.5398468988    4.8241462072
C        2.5290883652   -1.8293432933    5.0579587942
C        1.4911543161   -1.2046439392    4.1430890369
H        1.9832631816   -0.9058612491   -1.2311026516
H        3.3219499727   -2.5755559373    0.0446764614
H        0.4381659698    0.6188783277   -0.0058162426
H        3.1281627147   -2.7188800564    2.4937050774
H        0.2374952303    0.4724249893    2.4557054856
H        1.2249977323   -3.4184273008    4.1854928948
H        0.4894764428   -2.5656174694    5.6273181723
H        2.6911133084   -1.3549575603    6.0214216424
H        3.4273232477   -2.2390554634    4.6066729443
H        0.9697910643   -0.3500242642    4.5661891893
19   
Generated by ForceBalance from scan.xyz: Frame 12 of 24
C        1.9235696665   -0.9421169223   -0.1480559087
C        2.5676322685   -1.9643893219    0.5583786061
C        1.1152754479   -0.0371453149    0.5458108429
C        2.4051160162   -2.0794160395    1.9404179213
C        0.9548467989   -0.1553173072    1.9296287378
C        1.5950492029   -1.1759651864    2.6508290425
C        1.3315322281   -2.6114617557    4.8346232609
C        2.5219182127   -1.7132100295    5.0493152435
C        1.3982415243   -1.2675372659    4.1256773885
H        2.0508390898   -0.8535183412   -1.2238048933
H        3.1990428252   -2.6746107702    0.0299446183
H        0.6084986479    0.7622285405    0.0106329440
H        2.9163754375   -2.8827999242    2.4657067457
H        0.3231995042    0.5548517579    2.4592368001
H        1.4608660714   -3.5001843376    4.2239784986
H        0.6130921053   -2.7206510689    5.6419273575
H        2.6215166849   -1.2046982274    6.0038881086
H        3.4640704839   -1.9877608951    4.5841702269
H        0.7451982541   -0.4987426866    4.5298473079
19   
Generated by ForceBalance from scan.xyz: Frame 13 of 24
C        1.9540485789   -0.9220508056   -0.1399575479
C        2.4908793304   -2.0204775224    0.5403765973
C        1.2081374546    0.0231634055    0.5707035671
C        2.2818586436   -2.1733853809    1.9130633757
C        1.0038623424   -0.1314410420    1.9446504324
C        1.5307693530   -1.2329793990    2.6389896279
C        1.4442732186   -2.6485091411    4.8637514913
C        2.4917339037   -1.5810429407    5.0517499869
C        1.3184473531   -1.3357275698    4.1119157702
H        2.1152818309   -0.8053582387   -1.2084583793
H        3.0731770915   -2.7623578578   -0.0008004808
H        0.7859561334    0.8828890829    0.0560529203
H        2.7101559756   -3.0359867701    2.4173427937
H        0.4250063908    0.6123376206    2.4883714072
H        1.7080576818   -3.5372499585    4.2990731706
H        0.7414636139   -2.8270021784    5.6723109440
H        2.5179275778   -1.0350251896    5.9904991579
H        3.4613975262   -1.7312603628    4.5859492141
H        0.5478656901   -0.6692022614    4.4903053821
19   
Generated by ForceBalance from scan.xyz: Frame 14 of 24
C        1.9773398389   -0.9053585468   -0.1429213519
C        2.3939842753   -2.0797766049    0.4908217113
C        1.3178468642    0.0772575560    0.6036340931
C        2.1532328761   -2.2720215448    1.8549107605
C        1.0839483812   -0.1163854061    1.9667487528
C        1.4938748732   -1.2939494425    2.6159579822
C        1.5797590144   -2.6763265419    4.8740786874
C        2.4303763068   -1.4431163107    5.0565869187
C        1.2559602332   -1.4252870622    4.0849687385
H        2.1613967489   -0.7585219361   -1.2040351210
H        2.9033509787   -2.8530606636   -0.0791827442
H        0.9871919439    0.9953636434    0.1240485346
H        2.4781322608   -3.1978280677    2.3212405568
H        0.5753389724    0.6560429629    2.5401538637
H        2.0143734181   -3.5251035736    4.3564911823
H        0.8942352833   -2.9487586357    5.6711608360
H        2.3433552447   -0.8772991375    5.9799161630
H        3.4221105897   -1.4452659811    4.6137478344
H        0.3790215393   -0.8853069878    4.4337044091
19   
Generated by ForceBalance from scan.xyz: Frame 15 of 24
C        1.9864140285   -0.9016437931   -0.1514811073
C        2.2787343614   -2.1349879644    0.4362830045
C        1.4350703172    0.1184079735    0.6335508555
C        2.0245303303   -2.3497525712    1.7960229967
C        1.1888265317   -0.0987717708    1.9900992065
C        1.4807549667   -1.3342517692    2.5952309287
C        1.7271608762   -2.6670095977    4.8701520194
C        2.3347302046   -1.2973616287    5.0700977018
C        1.2140395403   -1.5002785605    4.0583681379
H        2.1810776406   -0.7366599620   -1.2080963428
H        2.6986613357   -2.9374068207   -0.1654481574
H        1.1996634522    1.0818953967    0.1878903371
H        2.2409920713   -3.3219426753    2.2293344502
H        0.7672271412    0.7006761800    2.5961361971
H        2.3370847988   -3.4184547809    4.3795375656
H        1.0779568592   -3.0609325284    5.6465720975
H        2.1105465117   -0.7525266993    5.9828502907
H        3.3295278191   -1.1278861750    4.6686949706
H        0.2484441511   -1.1103456032    4.3734909352
19   
Generated by ForceBalance from scan.xyz: Frame 16 of 24
C        1.9826554589   -0.9128737387   -0.1454639256
C        2.1623922261   -2.1847642422    0.4043733139
C        1.5447134156    0.1354158969    0.6735189963
C        1.9071019481   -2.4081787445    1.7626307585
C        1.2964420990   -0.0913504020    2.0284243851
C        1.4769028704   -1.3652671189    2.5942804421
C        1.8670949498   -2.6398063121    4.8689956460
C        2.2193848219   -1.1856801670    5.0980447721
C        1.1865157322   -1.5681775683    4.0501069123
H        2.1793785803   -0.7385304122   -1.2002585224
H        2.4957447266   -3.0067995681   -0.2244902187
H        1.4007769753    1.1287290376    0.2552686294
H        2.0347018637   -3.4050112192    2.1759401839
H        0.9648341787    0.7278847680    2.6631576812
H        2.6140656399   -3.2604868103    4.3839124095
H        1.2797202328   -3.1539490548    5.6240641518
H        1.8740684284   -0.7025146891    6.0076533035
H        3.1845222666   -0.8428887416    4.7366182835
H        0.1577736727   -1.3493742191    4.3307727144
19   
Generated by ForceBalance from scan.xyz: Frame 17 of 24
C        1.9872699617   -0.9224116143   -0.1498750393
C        2.0612299459   -2.2201780159    0.3647389303
C        1.6567307619    0.1391395514    0.7009223532
C        1.8055909138   -2.4545646011    1.7203278464
C        1.4052612582   -0.0997625489    2.0541290044
C        1.4774485524   -1.3988777855    2.5825032217
C        1.9928054706   -2.5965643277    4.8611427757
C        2.0933433326   -1.1054436144    5.1101302752
C        1.1706619808   -1.6375756076    4.0306326748
H        2.1868587671   -0.7383835550   -1.2025266808
H        2.3163140883   -3.0506366596   -0.2891673905
H        1.5991931826    1.1519495095    0.3094703721
H        1.8586482742   -3.4663488608    2.1147081978
H        1.1564726023    0.7276458816    2.7152462403
H        2.8408864017   -3.0783540142    4.3834978575
H        1.4813145873   -3.2095794854    5.5974886924
H        1.6471376296   -0.7003200545    6.0138663865
H        3.0008460464   -0.6044545714    4.7856881682
H        0.1100652070   -1.5978911691    4.2744404787
19   
Generated by ForceBalance from scan.xyz: Frame 18 of 24
C        1.9828870849   -0.9284101690   -0.1453324304
C        1.9497377496   -2.2426097019    0.3336181897
C        1.7638690433    0.1343115045    0.7377762609
C        1.6982529686   -2.4902210819    1.6863739186
C        1.5124458162   -0.1189623552    2.0896438297
C        1.4765335842   -1.4325349403    2.5812087383
C        2.1104035440   -2.5322161294    4.8728318406
C        1.9734806092   -1.0438146714    5.1238701020
C        1.1698464609   -1.7030281930    4.0240775688
H        2.1813396362   -0.7341168538   -1.1963604300
H        2.1221940573   -3.0734718008   -0.3462779557
H        1.7909892640    1.1585921414    0.3738096115
H        1.6776017303   -3.5122010689    2.0580785222
H        1.3460847120    0.7081430527    2.7760452062
H        3.0296330847   -2.8772585626    4.4082614414
H        1.6813004236   -3.2191348927    5.5965678821
H        1.4522546630   -0.7166482447    6.0188977274
H        2.8029725948   -0.4095502155    4.8245889219
H        0.1106255314   -1.8380552559    4.2386594614
19   
Generated by ForceBalance from scan.xyz: Frame 19 of 24
C        1.8795863740   -0.8961542697   -0.1408415116
C        2.8239316923   -0.2841509407    0.6921582189
C        1.0146420589   -1.8576420811    0.3898321756
C        2.8977988324   -0.6321172673    2.0429539556
C        1.0947541490   -2.2050521422    1.7430114631
C        2.0347232371   -1.5972469226    2.5870367181
C        1.7636572137   -0.9887007916    5.1190451773
C        0.9266721136   -2.2294090006    4.8831529088
C        2.1505043971   -1.9747423206    4.0334214376
H        1.8181892952   -0.6240417882   -1.1915405959
H        3.4987140141    0.4669206171    0.2885832532
H        0.2783953577   -2.3387189080   -0.2495712293
H        3.6263454050   -0.1482475395    2.6900304588
H        0.4237402343   -2.9578017521    2.1492616355
H        1.3470196249   -0.0377148628    4.7998519610
H        2.3783027499   -0.9397730968    6.0133521747
H        0.9684746783   -3.0277509027    5.6183290056
H       -0.0468818807   -2.0908346791    4.4222772763
H        3.0168594346   -2.5925388995    4.2651055477
19   
Generated by ForceBalance from scan.xyz: Frame 20 of 24
C        1.8837164840   -0.8860040621   -0.1435304663
C        2.9004940420   -0.3504049542    0.6569790559
C        0.9566089583   -1.7653467542    0.4216535942
C        2.9802488583   -0.6902801698    2.0085778081
C        1.0438745372   -2.1071473591    1.7765010698
C        2.0525753037   -1.5722709906    2.5893688594
C        1.6230766764   -0.9770308618    5.1021778826
C        0.9951477550   -2.3364980050    4.8813949775
C        2.1786576877   -1.9147389988    4.0424690361
H        1.8175849010   -0.6207939379   -1.1956603341
H        3.6272061220    0.3346661401    0.2269995231
H        0.1669314670   -2.1913737052   -0.1925466078
H        3.7662350436   -0.2644462043    2.6289800280
H        0.3268336590   -2.8044332080    2.2011933518
H        1.0708493930   -0.1098414816    4.7519106362
H        2.2093219074   -0.8124861894    6.0018079985
H        1.1517455859   -3.1057800728    5.6318232202
H        0.0154898469   -2.3598493848    4.4143328690
H        3.1260710685   -2.3812785715    4.3065885900
19   
Generated by ForceBalance from scan.xyz: Frame 21 of 24
C        1.8884283131   -0.8779114323   -0.1503716878
C        2.9691464444   -0.4265816926    0.6171341180
C        0.9019235214   -1.6632332095    0.4514784703
C        3.0516564525   -0.7548082566    1.9712563407
C        0.9921054688   -1.9946617336    1.8084699224
C        2.0635249654   -1.5405507241    2.5906197068
C        1.4755678679   -0.9924192655    5.0822365724
C        1.0803556133   -2.4372067594    4.8790621060
C        2.1974470485   -1.8480613580    4.0490376943
H        1.8201687241   -0.6234214657   -1.2049412573
H        3.7453154650    0.1821343465    0.1596090650
H        0.0631389654   -2.0273563365   -0.1368958991
H        3.8907332041   -0.3951382863    2.5635304218
H        0.2257868611   -2.6227561656    2.2534666359
H        0.8019684367   -0.2308769458    4.7003902439
H        2.0113841713   -0.7178367075    5.9865176937
H        1.3511976307   -3.1580338514    5.6448900873
H        0.1239411805   -2.6325316682    4.4052385019
H        3.1993393707   -2.1554787138    4.3411856584
19   
Generated by ForceBalance from scan.xyz: Frame 22 of 24
C        1.8954501691   -0.8842248420   -0.1527910532
C        3.0319716290   -0.5214436285    0.5785106001
C        0.8522877136   -1.5531483965    0.4941692585
C        3.1155919616   -0.8217590427    1.9397248423
C        0.9424114093   -1.8568524115    1.8564596669
C        2.0723792449   -1.4903448287    2.6038663777
C        1.3218504480   -1.0402232265    5.0729236816
C        1.1837754367   -2.5299605547    4.8735939560
C        2.2096502829   -1.7631063352    4.0665079226
H        1.8265348769   -0.6529821926   -1.2126030999
H        3.8533458912   -0.0048130924    0.0879022635
H       -0.0326317262   -1.8480998186   -0.0646179463
H        4.0020956726   -0.5327511885    2.5006982996
H        0.1240874979   -2.3896458917    2.3323772667
H        0.5445279062   -0.4035578628    4.6605112800
H        1.7754659255   -0.6724792693    5.9890508693
H        1.5590736496   -3.1884624815    5.6514169617
H        0.2922152489   -2.8975803564    4.3764385199
H        3.2384427570   -1.9101451710    4.3862187269
19   
Generated by ForceBalance from scan.xyz: Frame 23 of 24
C        1.9058282455   -0.9106536718   -0.1622317350
C        3.0856005323   -0.6302254649    0.5338348371
C        0.8141889329   -1.4447273794    0.5309320261
C        3.1680273538   -0.8799195744    1.9064415246
C        0.9014970682   -1.6964533382    1.9023142827
C        2.0789707794   -1.4134957551    2.6153879051
C        1.1709598228   -1.1106390583    5.0554703287
C        1.2998161422   -2.5972390760    4.8419643111
C        2.2112000042   -1.6511967770    4.0822341528
H        1.8380102865   -0.7186874177   -1.2298768289
H        3.9433765417   -0.2176780014    0.0082305915
H       -0.1075380217   -1.6710899428    0.0003547814
H        4.0908831593   -0.6573849664    2.4381653953
H        0.0397632223   -2.1150634925    2.4159667006
H        0.3151670048   -0.6060722920    4.6163575026
H        1.5187532409   -0.6853965222    5.9926263383
H        1.7500040767   -3.1923710569    5.6311149009
H        0.5179643320   -3.1096898865    4.2903425068
H        3.2383791287   -1.6305472692    4.4367377258
19   
Generated by ForceBalance from scan.xyz: Frame 24 of 24
C        1.9114719077   -0.9439011960   -0.1565557031
C        3.1211875321   -0.7453913455    0.5149744238
C        0.7839634962   -1.3431478855    0.5702248260
C        3.1997282841   -0.9446125686    1.8965630548
C        0.8659100684   -1.5412382732    1.9499886906
C        2.0764718310   -1.3452143164    2.6378814572
C        1.0643854272   -1.1983805579    5.0575193074
C        1.4283588024   -2.6422426377    4.8278650991
C        2.2019143131   -1.5473858124    4.1095300074
H        1.8464937505   -0.7901065797   -1.2305265419
H        4.0057071099   -0.4351894550   -0.0360522998
H       -0.1628979688   -1.5008203531    0.0594188405
H        4.1467155027   -0.7869254428    2.4085739921
H       -0.0249272213   -1.8512943913    2.4912986503
H        0.1482502754   -0.8214926497    4.6125176672
H        1.3232544181   -0.7444717470    6.0097147072
H        1.9366230396   -3.1807432760    5.6225358992
H        0.7604341330   -3.2520876865    4.2266889961
H        3.1998677698   -1.3569549283    4.4951206653
