25   

C        0.0068792811   -0.0810798662    1.3459027026
C        1.6315915788   -0.6648274863    2.9781618795
C       -0.8535733676   -1.0031467124    1.9414249441
C        1.2903646388    0.0991544980    1.8649608425
C        0.7114604371   -1.5718236918    3.5098654800
C        2.3068155728    1.0640187604    1.3402247223
C        2.8336445665    4.1089764003    0.8928320536
C        2.3050043505   -2.4958918262    5.2195319080
C        2.6594765476    2.9351761691   -0.0658267978
N       -0.5059806980   -1.7384530817    3.0068064137
N        0.9822357426   -2.3719273476    4.5945049805
O        3.4815452083    1.0179560171    1.6971576584
O        1.7633965729    1.9602501259    0.4871598488
H       -0.3312189062    0.4860030155    0.4874254330
H        2.6076868251   -0.5615611368    3.4313660508
H       -1.8459665943   -1.1317006756    1.5250672680
H        1.8632474609    4.5666937002    1.1069455208
H        3.2856259402    3.7729926418    1.8310005062
H        3.4869389039    4.8621243194    0.4427683469
H        3.0576319124   -2.7700260921    4.4726688035
H        2.2829544612   -3.2792417967    5.9837909958
H        2.5914546484   -1.5549726412    5.7006511061
H        3.6356507398    2.4913439569   -0.2915570171
H        2.2423416643    3.3015893924   -1.0090683063
H        0.2079569279   -2.9812730480    4.8332265750
25   

C       -0.0024678144   -0.1855585028    1.2506552075
C        1.6132868913   -0.6612449422    2.9260970329
C       -0.8583002164   -1.0839462891    1.8878702325
C        1.2749854004    0.0322566773    1.7672048216
C        0.6986051387   -1.5484893994    3.4987592047
C        2.2751099011    0.9929847864    1.2060392413
C        2.9399133002    4.0421285196    1.0446203173
C        2.2868280317   -2.3591710247    5.2692586130
C        2.5523383596    3.0061501532   -0.0058408106
N       -0.5119865746   -1.7569766120    2.9943556586
N        0.9676009478   -2.2826207901    4.6294319916
O        3.4802307921    0.8495073813    1.3947196546
O        1.6782889778    2.0174135929    0.5575825281
H       -0.3372338650    0.3365569652    0.3628750717
H        2.5846064735   -0.5170520674    3.3784074546
H       -1.8460887924   -1.2447259800    1.4717669960
H        2.0430475406    4.5190943365    1.4509959302
H        3.4953640590    3.5702042095    1.8607367725
H        3.5734842071    4.8104859681    0.5920601382
H        3.0481907458   -2.6626620547    4.5428800704
H        2.2675925008   -3.1024398338    6.0726290440
H        2.5590289105   -1.3915325906    5.7033331743
H        3.4543466200    2.5440489974   -0.4226631238
H        2.0328638197    3.5071435192   -0.8287198987
H        0.1986066026   -2.8882588537    4.8934254966
25   

C       -0.0021602208   -0.2886190572    1.1555752479
C        1.6014939278   -0.6426243889    2.8713682775
C       -0.8464539780   -1.1728718187    1.8273015730
C        1.2641710229   -0.0203196030    1.6729261234
C        0.6994926477   -1.5202506090    3.4779199727
C        2.2388730825    0.9462395074    1.0763455470
C        3.0669122301    3.9589615955    1.1817670874
C        2.2831567931   -2.2060965474    5.3040829017
C        2.4691808486    3.0817334644    0.0863152225
N       -0.4994319838   -1.7818308224    2.9702568060
N        0.9696517453   -2.1883020044    4.6485076937
O        3.4468742316    0.7278440304    1.0820580020
O        1.6224066748    2.0714178149    0.6528364361
H       -0.3360515954    0.1858863336    0.2412580544
H        2.5641449991   -0.4500696689    3.3239266398
H       -1.8257731902   -1.3751133995    1.4092733345
H        2.2688905144    4.4218887986    1.7698600747
H        3.7012926741    3.3635003530    1.8452670624
H        3.6775503779    4.7480543508    0.7333731732
H        3.0586900039   -2.5265636292    4.6003422435
H        2.2710101971   -2.9113186314    6.1411922871
H        2.5298135671   -1.2135224532    5.6949397944
H        3.2718583351    2.6343167368   -0.5107190957
H        1.8715180094    3.7052998531   -0.5859650503
H        0.2111993334   -2.7980097289    4.9329684525
25   

C       -0.0108798652   -0.4012152254    1.0665702007
C        1.5751150576   -0.6201675352    2.8195098734
C       -0.8342098019   -1.2852150030    1.7643834197
C        1.2360438471   -0.0650175702    1.5894988981
C        0.6954012511   -1.5024002567    3.4516340311
C        2.1794534535    0.9113924770    0.9554244961
C        3.2269069552    3.8390070336    1.2785040786
C        2.2733127796   -2.0506832792    5.3287289544
C        2.4096033156    3.1389527517    0.1974192052
N       -0.4847682425   -1.8299499993    2.9385815047
N        0.9702878608   -2.1075700108    4.6548522749
O        3.3555611388    0.6294517873    0.7488217461
O        1.5883533516    2.1112718599    0.7700226404
H       -0.3455997680    0.0203034354    0.1270990320
H        2.5231810594   -0.3721159350    3.2752103780
H       -1.7985043318   -1.5414098967    1.3410455219
H        2.5618606654    4.2652775185    2.0354743289
H        3.9103487195    3.1325202906    1.7591398067
H        3.8172698972    4.6453137122    0.8335916728
H        3.0707677353   -2.3701797516    4.6494760428
H        2.2739129703   -2.7219660026    6.1933859656
H        2.4775466594   -1.0348590944    5.6825465216
H        3.0789810782    2.7286263941   -0.5671004321
H        1.7631480847    3.8724662722   -0.2945856304
H        0.2299900823   -2.7324822785    4.9539168032
25   

C       -0.0356966029   -0.5031967369    0.9955200534
C        1.5073228748   -0.5633423129    2.7973350023
C       -0.8241145067   -1.4123494178    1.7013205635
C        1.1693194218   -0.0679607045    1.5422480382
C        0.6649939418   -1.4768911318    3.4361070767
C        2.0741851249    0.9292091628    0.8797495816
C        3.3788890982    3.7274227916    1.3408498471
C        2.2236984697   -1.8757486227    5.3663331742
C        2.3405065759    3.2165355154    0.3469492258
N       -0.4778169066   -1.8933497886    2.9038191353
N        0.9426215805   -2.0258317798    4.6653650315
O        3.1685463674    0.6076405348    0.4290758042
O        1.5506166020    2.1719013569    0.9327287296
H       -0.3643265877   -0.1412995684    0.0295044329
H        2.4256183365   -0.2441987168    3.2687620008
H       -1.7565263672   -1.7442332643    1.2595274948
H        2.8849360801    4.0903919552    2.2470846854
H        4.0774134409    2.9289812111    1.6088042570
H        3.9460450189    4.5497567716    0.8950851898
H        3.0545063103   -2.1631939634    4.7132366462
H        2.2434428677   -2.5255034115    6.2470686457
H        2.3591484459   -0.8415434250    5.6992598031
H        2.8385942717    2.8697693688   -0.5654990861
H        1.6787597199    4.0412736863    0.0642389956
H        0.2336703070   -2.6863566132    4.9640337187
25   

C       -0.0350448384   -0.6214216615    0.9241986050
C        1.4465039748   -0.5115178132    2.7729245118
C       -0.7698950377   -1.5754857656    1.6283450899
C        1.1049630317   -0.0657313930    1.5003941698
C        0.6611543664   -1.4765359446    3.4088658625
C        1.9627876354    0.9576757738    0.8134414703
C        3.5371199770    3.5983220993    1.3240244272
C        2.1919555394   -1.7150845006    5.3875785072
C        2.2984088972    3.2756364233    0.4941289233
N       -0.4269575931   -1.9963442245    2.8539830211
N        0.9459304776   -1.9770111717    4.6570298301
O        2.9035926511    0.6344003482    0.0965403903
O        1.5505995361    2.2105863176    1.0979212205
H       -0.3526542471   -0.3205583752   -0.0661851794
H        2.3223345208   -0.1116954157    3.2627781360
H       -1.6539522681   -1.9970880885    1.1642111272
H        3.2462136782    3.8705999839    2.3429879224
H        4.2081021168    2.7347833411    1.3614496764
H        4.0761956967    4.4377803963    0.8753575097
H        3.0600258860   -1.9451457659    4.7607417364
H        2.2397521406   -2.3483473628    6.2791914086
H        2.2360795774   -0.6685984820    5.7064264668
H        2.5930454497    3.0201968734   -0.5299693181
H        1.6622880439    4.1646209269    0.4385935962
H        0.2837519754   -2.6871742307    4.9492755121
25   

C       -0.0277032309   -0.7187334580    0.8644940266
C        1.3754249784   -0.4491834931    2.7559473177
C       -0.6980787747   -1.7240571782    1.5612400471
C        1.0313365455   -0.0455824336    1.4697048514
C        0.6585248791   -1.4712867837    3.3836926888
C        1.8358574251    1.0114430516    0.7719612644
C        3.6636301590    3.4768749709    1.2804824203
C        2.1440299889   -1.5498627663    5.4095519716
C        2.2765721107    3.3321221723    0.6618503157
N       -0.3613822640   -2.0930125992    2.8050955641
N        0.9493029451   -1.9303846894    4.6462891910
O        2.5740941603    0.7392432916   -0.1686654082
O        1.5694971188    2.2396673084    1.2656115009
H       -0.3291917220   -0.4701683537   -0.1454369207
H        2.1987142667    0.0306127476    3.2646752567
H       -1.5219868093   -2.2331100988    1.0746485451
H        3.5791418561    3.6306266579    2.3604449457
H        4.2619954253    2.5803351609    1.0918364286
H        4.1782486072    4.3366107537    0.8416296948
H        3.0479785039   -1.7095366788    4.8122557086
H        2.2201215137   -2.1656043275    6.3114182055
H        2.0855114478   -0.4998108925    5.7140208891
H        2.3646591353    3.1958459859   -0.4218621340
H        1.7105518925    4.2537310572    0.8299849400
H        0.3430675838   -2.6922454260    4.9297260113
25   

C       -0.0085986572   -0.7793840091    0.8176277068
C        1.3109634356   -0.3814774233    2.7450938763
C       -0.6141626487   -1.8317536437    1.5037145193
C        0.9698053838   -0.0121552857    1.4471367435
C        0.6627067578   -1.4550475848    3.3615669282
C        1.7132082991    1.0875839118    0.7530705716
C        3.7586072018    3.3800036512    1.2212307879
C        2.0880058522   -1.3943858912    5.4311558590
C        2.2811240304    3.3824330933    0.8405205830
N       -0.2854705667   -2.1625354004    2.7602686145
N        0.9554133085   -1.8820983293    4.6349138544
O        2.2447497715    0.9101343013   -0.3381092872
O        1.6120859241    2.2560960688    1.4249874581
H       -0.2951955035   -0.5667151746   -0.2050238570
H        2.0782778671    0.1663214692    3.2725217186
H       -1.3769081686   -2.4118855090    0.9973533315
H        3.8661714940    3.3978179425    2.3099094206
H        4.2537032529    2.4873185257    0.8269234775
H        4.2513292961    4.2631556528    0.8043186701
H        3.0214133095   -1.4837598535    4.8653619229
H        2.1853590618   -1.9920319671    6.3430946732
H        1.9317130486   -0.3498354587    5.7196450715
H        2.1775433868    3.3824156795   -0.2503465527
H        1.8158658336    4.3006296554    1.2125997496
H        0.4052359292   -2.6887403388    4.9086544471
25   

C        0.0460226196   -0.8233096292    0.7748330649
C        1.2668838117   -0.3354897300    2.7450069431
C       -0.5027152823   -1.9199105494    1.4385685621
C        0.9446829862    0.0132579000    1.4358329513
C        0.6796015705   -1.4563616709    3.3381331620
C        1.6187093045    1.1674762983    0.7636076975
C        3.8305547741    3.3160064880    1.1465316015
C        2.0219022255   -1.2943021748    5.4574009817
C        2.3131540544    3.4149353991    1.0209276414
N       -0.1925081579   -2.2302031552    2.7047342228
N        0.9601868773   -1.8654853787    4.6200805715
O        1.9595771002    1.1094899887   -0.4137416790
O        1.6882116498    2.2482142631    1.5742785240
H       -0.2229454085   -0.6282837214   -0.2563472599
H        1.9732462980    0.2634657531    3.3013947911
H       -1.2035694820   -2.5524686458    0.9062000342
H        4.1138356922    3.1958803190    2.1964860698
H        4.2069299637    2.4625383468    0.5742985247
H        4.2958769701    4.2266585448    0.7582941522
H        2.9803662787   -1.3145139469    4.9279842057
H        2.1281399406   -1.8823302612    6.3745799692
H        1.7775749151   -0.2640167147    5.7359041458
H        2.0345484768    3.5527585859   -0.0298391360
H        1.9639896397    4.2954428558    1.5693471957
H        0.4610944522   -2.7105720761    4.8750625028
25   

C        0.0996779856   -0.8761740355    0.7511819804
C        1.2213561849   -0.3218557174    2.7609736049
C       -0.3999487483   -2.0086589841    1.3924159005
C        0.9256943321    0.0121473110    1.4410200236
C        0.6867574999   -1.4808260452    3.3307462534
C        1.5266111330    1.2178166999    0.7911165458
C        3.8713505939    3.2486377466    1.0126173897
C        1.9345343549   -1.2390337153    5.5002678703
C        2.3600997458    3.4029726066    1.1550617232
N       -0.1120517125   -2.3057518483    2.6665198415
N        0.9475316098   -1.8771964441    4.6209397738
O        1.6811344038    1.2744446229   -0.4252519339
O        1.7815435498    2.2016743472    1.6846133256
H       -0.1533575010   -0.6918588401   -0.2861755335
H        1.8679893748    0.3132875889    3.3488684753
H       -1.0432649423   -2.6801189082    0.8356077426
H        4.3178614260    3.0083542276    1.9821283308
H        4.1091601412    2.4514080926    0.3017168628
H        4.3074218789    4.1823358883    0.6457492912
H        2.9134574241   -1.1974576259    5.0110845750
H        2.0399627963   -1.8191546268    6.4225589636
H        1.6131607735   -0.2266544906    5.7659262298
H        1.9190552868    3.6608076289    0.1856513068
H        2.1465150562    4.2289924803    1.8406477183
H        0.4929436887   -2.7523143865    4.8571025307
25   

C        0.1840460873   -0.9004602521    0.7300053752
C        1.1930840094   -0.3049847980    2.7862085373
C       -0.2740444206   -2.0666876291    1.3404048646
C        0.9360440605    0.0249057155    1.4567222080
C        0.7042540979   -1.4993534894    3.3237158682
C        1.4674248711    1.2804174288    0.8405157902
C        3.9019907701    3.2224384451    0.8634499466
C        1.8449791206   -1.2102390836    5.5461855360
C        2.4412594789    3.3950786229    1.2686290333
N       -0.0180646969   -2.3618546693    2.6212910604
N        0.9331531991   -1.8934632512    4.6207087981
O        1.4447042413    1.4499746112   -0.3752259599
O        1.9096351660    2.1599118889    1.7689637425
H       -0.0468772761   -0.7177262382   -0.3128788173
H        1.7742415958    0.3554343323    3.4130215043
H       -0.8584257517   -2.7657751719    0.7534369931
H        4.4907567761    2.8753027025    1.7177864880
H        3.9899724978    2.4962307106    0.0496018952
H        4.3081194369    4.1786199906    0.5209131602
H        2.8398596399   -1.1098098969    5.0996001276
H        1.9433486438   -1.7925680565    6.4678602329
H        1.4568175837   -0.2198231202    5.8053717679
H        1.8587464344    3.7596025676    0.4150490672
H        2.3742812338    4.1522213629    2.0561512524
H        0.5191844567   -2.7950508449    4.8305057787
25   

C       -0.2165355188   -0.1450523254    1.1671078630
C        1.6037171909   -0.9779460576    2.4288019946
C       -1.0725457387   -0.6644294028    2.1364778246
C        1.1663382290   -0.2939569980    1.2958189243
C        0.6809504498   -1.4630801913    3.3603947815
C        2.1228154593    0.2448069853    0.2788622929
C        4.7248570377    1.9348507031   -0.0428114814
C        2.4251309760   -2.2690244188    4.9830513499
C        4.4007575026    0.4708908698   -0.3241103796
N       -0.6293717630   -1.3147498206    3.2197488870
N        1.0438404223   -2.1312368326    4.5057536679
O        1.7210500493    0.8448500265   -0.7141556985
O        3.4125524201   -0.0123886527    0.5971802610
H       -0.6329992892    0.3739710137    0.3117973264
H        2.6571957773   -1.1409015191    2.6026438764
H       -2.1411791177   -0.5352735121    2.0095909635
H        3.8371901032    2.5579823245   -0.1882736032
H        5.0786443050    2.0507689685    0.9859766137
H        5.5068884619    2.2799065172   -0.7254105077
H        2.9026954119   -1.2867451252    5.0628279137
H        3.0034615308   -2.9048174609    4.3047653014
H        2.4305744390   -2.7313500558    5.9752651886
H        5.3107931169   -0.1263544734   -0.2097903487
H        4.0639253384    0.3569646267   -1.3606516066
H        0.2438688716   -2.3944704255    5.0705497882
25   

C       -0.2422359219   -0.2203931246    1.1243847759
C        1.6037034535   -0.9329982818    2.4227966294
C       -1.0812661085   -0.7914924368    2.0795611233
C        1.1442244831   -0.2867055744    1.2766654845
C        0.6966879141   -1.4741046221    3.3387410965
C        2.0854181185    0.3288016418    0.2899209015
C        4.8122246823    1.8146568391    0.0504825040
C        2.4582193787   -2.1555862275    4.9990816919
C        4.3351831358    0.4497358181   -0.4364522792
N       -0.6176373180   -1.4113962756    3.1723071689
N        1.0801139742   -2.1100888621    4.4956315984
O        1.6814426496    1.0949038511   -0.5802390662
O        3.3595006478   -0.0920785284    0.4652459360
H       -0.6738259891    0.2762376746    0.2633314630
H        2.6627656405   -1.0195238477    2.6169422241
H       -2.1534813322   -0.7281566500    1.9343022896
H        3.9808818020    2.5259726053    0.0695987862
H        5.2328933553    1.7289984967    1.0568337375
H        5.5837588349    2.2003689796   -0.6222109373
H        2.8697068219   -1.1440363896    5.0812740957
H        3.0890237368   -2.7561547420    4.3356279809
H        2.4749523367   -2.6112589721    5.9942449251
H        5.1891853956   -0.2332117034   -0.4834227190
H        3.9308300277    0.5369307362   -1.4511896526
H        0.2883033413   -2.4214230283    5.0473135188
25   

C       -0.2565978957   -0.2887214418    1.0772290312
C        1.5968584167   -0.8835585500    2.4247445353
C       -1.0818255652   -0.9130399744    2.0113316048
C        1.1261735148   -0.2730978143    1.2641520783
C        0.7033467271   -1.4821325512    3.3174998769
C        2.0555403988    0.4204452873    0.3194364472
C        4.8863816451    1.6903011954    0.1066687215
C        2.4622130266   -2.0450787051    5.0239051241
C        4.2563359359    0.4658145085   -0.5503344572
N       -0.6076454409   -1.5042419814    3.1159300727
N        1.0970248004   -2.0891706960    4.4863610922
O        1.6649770738    1.3332068329   -0.4023354553
O        3.2908826578   -0.1320214487    0.3264492013
H       -0.6947614790    0.1875322703    0.2081470838
H        2.6553796651   -0.8941124450    2.6405716308
H       -2.1520954064   -0.9152505289    1.8402551834
H        4.1272440881    2.4548823050    0.2980702695
H        5.3571504753    1.4087192557    1.0533203613
H        5.6485003769    2.1152823185   -0.5529586112
H        2.8061623008   -1.0090896350    5.1119041989
H        3.1463641848   -2.6059101230    4.3787910753
H        2.4831991740   -2.4959624806    6.0211710088
H        5.0387784098   -0.2684572237   -0.7661675310
H        3.8013401809    0.7487383327   -1.5062050563
H        0.3132093764   -2.4496907586    5.0191950016
25   

C       -0.2467582166   -0.3616802030    1.0403277172
C        1.5955274571   -0.8465957482    2.4477772817
C       -1.0606375353   -1.0444582420    1.9434264352
C        1.1245164764   -0.2642390156    1.2737204557
C        0.7133945865   -1.5071981723    3.3071576552
C        2.0434978861    0.5074387316    0.3801788917
C        4.9563307749    1.5598126357    0.1289520363
C        2.4444135553   -1.9547951009    5.0742915508
C        4.1695981540    0.5163237979   -0.6586054940
N       -0.5860556173   -1.6126702261    3.0603752728
N        1.1063901033   -2.0932343251    4.4868264995
O        1.6822456196    1.5477798143   -0.1610156770
O        3.2170185075   -0.1383438967    0.1910952182
H       -0.6842399172    0.0974964382    0.1619890734
H        2.6460249116   -0.7859374210    2.6928067704
H       -2.1226540692   -1.1121754627    1.7378100615
H        4.2875050938    2.3408582003    0.5033267808
H        5.4643958235    1.0877743566    0.9751981041
H        5.7064473618    2.0253219637   -0.5169324437
H        2.7137716042   -0.8975855108    5.1696578988
H        3.1885809917   -2.4694731613    4.4577957671
H        2.4587723053   -2.4003738259    6.0740612243
H        4.8625962958   -0.2329185719   -1.0540331498
H        3.6766489440    0.9897359315   -1.5151155090
H        0.3297825398   -2.5049442465    4.9924514004
25   

C       -0.2263052494   -0.4371214893    1.0142932207
C        1.5843951871   -0.8080383827    2.4970110842
C       -1.0283589099   -1.1827987597    1.8777652009
C        1.1230993140   -0.2501357501    1.3081342066
C        0.7145775149   -1.5356775953    3.3135784627
C        2.0296696126    0.5950169907    0.4669097161
C        4.9956209470    1.4483967424    0.1025602682
C        2.3944699561   -1.8741781536    5.1525315554
C        4.0514165837    0.6176694620   -0.7613121986
N       -0.5629879015   -1.7279711843    3.0102849082
N        1.0973773689   -2.1042925123    4.5050507320
O        1.7184669616    1.7353795301    0.1391532761
O        3.1182500865   -0.0962882479    0.0616781194
H       -0.6566558718    0.0008513711    0.1220152409
H        2.6174556740   -0.6759113536    2.7840012307
H       -2.0737658636   -1.3208265776    1.6271501759
H        4.4363266165    2.2038139228    0.6629350952
H        5.5279605604    0.8016048405    0.8063950247
H        5.7279541645    1.9573693701   -0.5308298701
H        2.5843367262   -0.8010179092    5.2604105270
H        3.1999975138   -2.3331769978    4.5701358018
H        2.3950319931   -2.3210775132    6.1518170302
H        4.6358278732   -0.1048376291   -1.3396200113
H        3.5333127591    1.2662333653   -1.4766116338
H        0.3298973281   -2.5714440484    4.9752038882
25   

C       -0.1719785951   -0.4912826636    0.9950920349
C        1.5738987443   -0.7582040912    2.5761807842
C       -0.9692369602   -1.2985924441    1.8063607682
C        1.1409319227   -0.2152010615    1.3706004875
C        0.7103079034   -1.5513301440    3.3363613690
C        2.0469643606    0.6835808577    0.5815031330
C        5.0414039586    1.3253299297    0.0344876871
C        2.3014372586   -1.7958946222    5.2665001285
C        3.9361568113    0.7405533377   -0.8396134541
N       -0.5328182869   -1.8239328297    2.9597166243
N        1.0641603385   -2.1095868549    4.5416012779
O        1.8398814628    1.8893518063    0.4972566250
O        3.0159077256   -0.0191290977   -0.0433951811
H       -0.5786418119   -0.0778783230    0.0805634837
H        2.5788857083   -0.5626110330    2.9205057598
H       -1.9866082440   -1.5050661120    1.4948243203
H        4.6214941387    2.0203565224    0.7679900815
H        5.5678290839    0.5235752398    0.5609505101
H        5.7588201966    1.8684098426   -0.5875634334
H        2.4103984919   -0.7130776540    5.3890421407
H        3.1698906834   -2.1944415010    4.7320074391
H        2.2731450058   -2.2489361496    6.2626142733
H        4.3829134420    0.0791954814   -1.5886297119
H        3.4228665649    1.5448816683   -1.3784569798
H        0.3039294468   -2.6309081771    4.9641685765
25   

C       -0.0790565478   -0.5503167374    0.9641137327
C        1.5730880981   -0.7082871741    2.6583183946
C       -0.8699696902   -1.4172284159    1.7184251715
C        1.1784032318   -0.1785902047    1.4342456214
C        0.7183615907   -1.5652969122    3.3564815609
C        2.0927780181    0.7569022311    0.6967483108
C        5.0819674524    1.1859796090   -0.0732445694
C        2.1960783412   -1.7222177645    5.3831108581
C        3.8352678135    0.8762054343   -0.8960674191
N       -0.4761772165   -1.9183922072    2.8976958578
N        1.0324324896   -2.1123874350    4.5777654579
O        2.0508302962    1.9700487359    0.8701980230
O        2.9135645128    0.0826175792   -0.1352794962
H       -0.4475239972   -0.1692967482    0.0200215787
H        2.5393153295   -0.4500843843    3.0665223127
H       -1.8456148341   -1.6953702626    1.3370070686
H        4.8208155498    1.7792804843    0.8082941157
H        5.5598820791    0.2561254013    0.2492717930
H        5.7932759786    1.7564797471   -0.6775331738
H        2.2219184664   -0.6358260626    5.5190690619
H        3.1224719735   -2.0545460594    4.9034277930
H        2.1355171057   -2.1867481007    6.3724660543
H        4.1259015065    0.3167759652   -1.7908289187
H        3.3695015376    1.8097440795   -1.2313355373
H        0.2840803763   -2.6880683490    4.9476036181
25   

C       -0.1916859747    0.4776469827    1.9951985484
C        1.5950536691   -0.5203387440    3.1958135702
C       -0.9808945023   -0.6161696941    2.3510960698
C        1.1296548116    0.5444761474    2.4313202580
C        0.7421278764   -1.5840797170    3.5020284935
C        2.0642035502    1.6652146493    2.0816458433
C        2.5879732561    3.8704190628   -0.0467208219
C        2.5119696127   -2.9334692311    4.6712724107
C        3.3551907831    2.6098421057    0.3406602516
N       -0.5205146831   -1.6322376790    3.0943461518
N        1.1324121373   -2.6751370333    4.2414865266
O        2.4469821169    2.4727135242    2.9214870712
O        2.4514899346    1.5905213845    0.7904744583
H       -0.6101046871    1.2678408915    1.3847745269
H        2.6149111183   -0.5169038201    3.5525569427
H       -2.0089511047   -0.6484542562    2.0093649994
H        1.8570342178    3.6403751216   -0.8276989338
H        2.0660355413    4.2827887682    0.8221690781
H        3.2820827853    4.6261382155   -0.4257467405
H        3.1864701601   -2.9405883482    3.8085536979
H        2.5720128597   -3.9120114164    5.1582277765
H        2.8395564913   -2.1730326110    5.3876767201
H        4.0978511630    2.8479436130    1.1104037247
H        3.8987441550    2.2377212296   -0.5334527674
H        0.3886922047   -3.3544864202    4.3572756242
25   

C       -0.1111905792    0.4083956246    1.8778373492
C        1.6169818908   -0.5496494558    3.1933458803
C       -0.9240139380   -0.6627643074    2.2492596978
C        1.1903809309    0.4867981722    2.3689902084
C        0.7426920303   -1.5923759815    3.5105822104
C        2.1632637171    1.5647232543    1.9994691637
C        2.5815953950    3.9770378210    0.0847461811
C        2.4550560900   -2.9060298515    4.7990635291
C        3.2614335027    2.6150092345    0.1870972397
N       -0.5035407320   -1.6478887333    3.0554443488
N        1.0943904048   -2.6548402963    4.3087321755
O        2.7714313301    2.2049160789    2.8511758455
O        2.3353237666    1.6271883076    0.6609239646
H       -0.4944249631    1.1703690626    1.2109023267
H        2.6231130698   -0.5394589772    3.5878645726
H       -1.9368388929   -0.7040876299    1.8655992361
H        1.7171555340    3.9163664663   -0.5832337259
H        2.2488511582    4.3135677908    1.0714111901
H        3.2841786304    4.7140621477   -0.3149095479
H        3.1607969575   -2.9516183428    3.9628961962
H        2.4889551352   -3.8651973584    5.3254724894
H        2.7626623094   -2.1203967553    5.4969070623
H        4.1366857299    2.6840654690    0.8427438590
H        3.6184712715    2.3166147760   -0.8035981776
H        0.3413673646   -3.3241049318    4.4226831543
25   

C       -0.0554110621    0.3215649625    1.7613355379
C        1.6311893514   -0.5846201496    3.1663688020
C       -0.8890154904   -0.7197652545    2.1693904315
C        1.2362900203    0.4113282767    2.2778993148
C        0.7371662914   -1.5994227063    3.5170883428
C        2.2366573867    1.4520709803    1.8829800443
C        2.5848974768    4.0588582364    0.2269732576
C        2.4034689505   -2.8610465934    4.9131235835
C        3.1463947943    2.6503692617    0.0571412652
N       -0.4988842427   -1.6652763066    3.0360460768
N        1.0574953195   -2.6221789094    4.3778958847
O        3.0169031209    1.9369377064    2.6971416809
O        2.2153311514    1.6766181279    0.5502564483
H       -0.4149794799    1.0511053655    1.0464462568
H        2.6280917140   -0.5665106560    3.5840436663
H       -1.8931924080   -0.7705838962    1.7647134850
H        1.6291485570    4.1484070735   -0.2980361068
H        2.4336679592    4.2852337264    1.2868683391
H        3.2843538521    4.7903971218   -0.1879439715
H        3.1279707415   -2.9580081417    4.0976245337
H        2.4141327379   -3.7912677141    5.4900287105
H        2.7038198599   -2.0427174950    5.5756710074
H        4.1116927045    2.5700416561    0.5694514030
H        3.3244829548    2.4607049130   -1.0060111195
H        0.2945728331   -3.2769930035    4.5084165272
25   

C       -0.0131309225    0.2326600258    1.6523082125
C        1.6473094957   -0.6079978665    3.1289485267
C       -0.8614849394   -0.7766222168    2.1073935473
C        1.2752272714    0.3374285869    2.1769973632
C        0.7388014086   -1.5931738715    3.5240663882
C        2.2928626729    1.3492863493    1.7544323251
C        2.6183589136    4.1246350108    0.3855721387
C        2.3739519408   -2.7885808826    5.0121138633
C        3.0333392889    2.7164430991   -0.0299087046
N       -0.4912647089   -1.6754576317    3.0304697534
N        1.0371835790   -2.5675290031    4.4467646717
O        3.2076289195    1.6910194647    2.4992467313
O        2.1031844690    1.7486963904    0.4769495955
H       -0.3610608822    0.9256386676    0.8963072089
H        2.6375894319   -0.5785943716    3.5617687886
H       -1.8615350623   -0.8402668096    1.6943934986
H        1.6097287147    4.3421679868    0.0216696670
H        2.6344287020    4.2223898530    1.4753687735
H        3.3113980271    4.8567741963   -0.0389499185
H        3.1081083060   -2.9356593618    4.2128967668
H        2.3686475217   -3.6862547812    5.6385193820
H        2.6732700513   -1.9381195728    5.6333874093
H        4.0505201252    2.5092604338    0.3210319399
H        3.0463502804    2.6538559302   -1.1225597864
H        0.2666855521   -3.2077211009    4.6026563628
25   

C        0.0079508190    0.1322026439    1.5457515404
C        1.6517749399   -0.6378501857    3.0786437968
C       -0.8513038191   -0.8437473064    2.0501037718
C        1.2967201392    0.2531015914    2.0689075051
C        0.7322689976   -1.5920610005    3.5215149439
C        2.3240808932    1.2414399867    1.6137058883
C        2.6697294886    4.1512830454    0.5571094083
C        2.3446277625   -2.7108656528    5.0920687595
C        2.9106869338    2.7865926983   -0.0810917600
N       -0.4945368934   -1.6929858827    3.0237343352
N        1.0148361454   -2.5135142313    4.5018480800
O        3.3513467220    1.4436876724    2.2565425299
O        1.9878642539    1.8184027493    0.4385311760
H       -0.3350640546    0.7865068155    0.7538564031
H        2.6373277002   -0.5952195424    3.5210127250
H       -1.8497028736   -0.9213398879    1.6354917487
H        1.6402497763    4.4745283241    0.3761513174
H        2.8459047284    4.1055777888    1.6361424164
H        3.3517712222    4.8892369206    0.1249131872
H        3.0850380906   -2.9097295827    4.3100063829
H        2.3265292788   -3.5701852333    5.7699052273
H        2.6448387375   -1.8276941833    5.6654408404
H        3.9476344185    2.4748123451    0.0871457955
H        2.7657419481    2.8659666610   -1.1630586931
H        0.2382440645   -3.1383640667    4.6869130282
25   

C        0.0014647634    0.0232529684    1.4471722765
C        1.6331767285   -0.6590573192    3.0337092134
C       -0.8620722151   -0.9224978319    1.9993762152
C        1.2886617472    0.1698137672    1.9688291751
C        0.7095277034   -1.5862156186    3.5229892247
C        2.3164778368    1.1413422201    1.4788156812
C        2.7401601983    4.1390549703    0.7286297900
C        2.3081456793   -2.6137532042    5.1680695089
C        2.7782792897    2.8526383704   -0.0906054960
N       -0.5130962292   -1.7157040455    3.0217504359
N        0.9826265478   -2.4480323611    4.5587150904
O        3.4312454091    1.2111947253    1.9909388908
O        1.8634430729    1.8860432065    0.4460764992
H       -0.3383535462    0.6338909852    0.6198219684
H        2.6136319800   -0.5916102346    3.4841739362
H       -1.8578818675   -1.0221890298    1.5832610221
H        1.7247788238    4.5463129720    0.7420795377
H        3.0625323961    3.9477227526    1.7566641405
H        3.4115373232    4.8809485100    0.2865759744
H        3.0537017021   -2.8562327598    4.4033845339
H        2.2842892144   -3.4341822227    5.8923203950
H        2.6055670588   -1.7004758070    5.6937466868
H        3.8002506249    2.4580221432   -0.1163860373
H        2.4892494531    3.0759387185   -1.1223792543
H        0.2046077215   -3.0621324034    4.7716544721
