37

C      9.38054   -1.37095   -1.29028
C      7.66784   -1.21125    0.30426
C     10.48552   -1.16998   -2.28453
C      7.19632   -1.55173    8.05513
C     13.61245   -3.60688   -2.24105
C      6.45539   -1.12251    6.78416
C     13.40149   -2.36641   -3.11470
C      7.23258   -1.44987    5.50333
C      6.49382   -1.00977    4.23200
C     12.03211   -2.33438   -3.80710
C      7.28872   -1.34368    2.97258
N      8.90675   -2.54447   -0.94995
N      7.90123   -2.45232   -0.02519
N     10.91239   -2.31487   -2.86825
O     10.92263   -0.04165   -2.51632
O      6.46040    0.80549    1.53707
S      8.64067   -0.01232   -0.49623
S      6.38316   -0.70779    1.48889
H      7.38031   -2.63227    8.06050
H      8.16732   -1.04967    8.13515
H      6.61977   -1.30720    8.95341
H     12.87748   -3.65244   -1.43008
H     13.52319   -4.52857   -2.82887
H     14.60653   -3.60073   -1.78293
H      6.25794   -0.04355    6.81987
H      5.47403   -1.61298    6.74728
H     14.17100   -2.32231   -3.89527
H     13.50869   -1.45634   -2.51519
H      7.42803   -2.52988    5.46142
H      8.21461   -0.95971    5.53961
H      6.31373    0.07027    4.26617
H      5.51205   -1.49827    4.18970
H     11.95144   -1.44339   -4.43440
H     11.90580   -3.21277   -4.44846
H      7.41269   -2.42040    2.82001
H      8.26833   -0.85574    2.96718
H     10.49285   -3.17993   -2.54675
