25   

C       -0.0095997714   -0.0468820779    1.3763238309
C        1.6315915788   -0.6648274863    2.9781618795
C       -0.8763630988   -0.9551160750    1.9837513071
C        1.2903646388    0.0991544980    1.8649608425
C        0.7040898984   -1.5557628118    3.5240631101
C        2.3068155728    1.0640187604    1.3402247223
C        2.8132824350    4.1186014762    0.9022151411
C        2.3037890791   -2.4969132045    5.2191542062
C        2.6574935815    2.9423077518   -0.0565275515
N       -0.5235555275   -1.7011311985    3.0397837359
N        0.9771664803   -2.3601099427    4.6050351943
O        3.4691468632    1.0519482700    1.7383935782
O        1.7633965729    1.9602501259    0.4871598488
H       -0.3546915021    0.5331136167    0.5293357942
H        2.6143401632   -0.5763051160    3.4199186110
H       -1.8786658343   -1.0625766910    1.5855567085
H        1.8375078316    4.5694555254    1.1059887444
H        3.2584151257    3.7874074525    1.8453274054
H        3.4656190731    4.8758010504    0.4575772553
H        3.0467301817   -2.7830001449    4.4671007789
H        2.2792113502   -3.2766120918    5.9870598400
H        2.6052746155   -1.5573312931    5.6936830658
H        3.6393053861    2.5055801233   -0.2715216728
H        2.2476065461    3.3046350199   -1.0045198511
H        0.1966149080   -2.9565018650    4.8557000867
25   

C       -0.0341908809   -0.1179655198    1.3067020434
C        1.6132868913   -0.6612449422    2.9260970329
C       -0.9020923223   -0.9886657132    1.9654117789
C        1.2749854004    0.0322566773    1.7672048216
C        0.6849491116   -1.5165675633    3.5248650401
C        2.2751099011    0.9929847864    1.2060392413
C        2.9048843525    4.0604002032    1.0689427809
C        2.2865935758   -2.3613970606    5.2680588011
C        2.5518497319    3.0174551315    0.0132499396
N       -0.5455296441   -1.6829924689    3.0548761728
N        0.9591451208   -2.2586345949    4.6491884110
O        3.4690924605    0.9047844407    1.4812816464
O        1.6782889778    2.0174135929    0.5575825281
H       -0.3827196563    0.4293056863    0.4396027110
H        2.5973389990   -0.5460954415    3.3587537320
H       -1.9089143527   -1.1073590477    1.5821126056
H        1.9942355336    4.5273071645    1.4556607721
H        3.4493658149    3.5975295313    1.8974912368
H        3.5384301910    4.8351537340    0.6273574666
H        3.0288757037   -2.6875766976    4.5318453916
H        2.2632830883   -3.0981906328    6.0772614519
H        2.5880068607   -1.3972311396    5.6904557953
H        3.4682422971    2.5657365138   -0.3831837032
H        2.0442891695    3.5107196475   -0.8216583332
H        0.1782951149   -2.8386784144    4.9348606564
25   

C       -0.0487078382   -0.1895609134    1.2315689829
C        1.6014939278   -0.6426243889    2.8713682775
C       -0.9110965950   -1.0329348932    1.9319230668
C        1.2641710229   -0.0203196030    1.6729261234
C        0.6797520165   -1.4733640481    3.5132803468
C        2.2388730825    0.9462395074    1.0763455470
C        3.0232245270    3.9833297200    1.2254683612
C        2.2853280229   -2.2099338929    5.3012218715
C        2.4732768097    3.0941466925    0.1147825033
N       -0.5489075602   -1.6732340944    3.0520445791
N        0.9583912004   -2.1525212939    4.6755715275
O        3.4491322203    0.7910535050    1.2153048093
O        1.6224066748    2.0714178149    0.6528364361
H       -0.4021293319    0.3221011725    0.3450211995
H        2.5836488688   -0.4915036214    3.2971198189
H       -1.9185544892   -1.1731103557    1.5576864118
H        2.2006724352    4.4364797513    1.7865520817
H        3.6452767821    3.3998041384    1.9107883376
H        3.6364568300    4.7794391469    0.7932733623
H        3.0332811630   -2.5628002368    4.5832882795
H        2.2682945720   -2.9068995523    6.1451275370
H        2.5744117505   -1.2229751917    5.6770071888
H        3.3014914653    2.6567449206   -0.4542329059
H        1.8895787954    3.7076300855   -0.5787292830
H        0.1827298435   -2.7250772584    4.9891583271
25   

C       -0.0734142594   -0.2735355988    1.1564832278
C        1.5751150576   -0.6201675352    2.8195098734
C       -0.9219945490   -1.1046287002    1.8879932137
C        1.2360438471   -0.0650175702    1.5894988981
C        0.6684688629   -1.4418411353    3.4936021891
C        2.1794534535    0.9113924770    0.9554244961
C        3.1812896222    3.8663999883    1.3460526129
C        2.2779206426   -2.0568423652    5.3235666331
C        2.4215469829    3.1496904194    0.2344028852
N       -0.5523566130   -1.6896731684    3.0354006366
N        0.9549683709   -2.0609769072    4.6870721119
O        3.3861464964    0.6879405747    0.9284749205
O        1.5883533516    2.1112718599    0.7700226404
H       -0.4334157175    0.1967035327    0.2500377112
H        2.5509899053   -0.4245527251    3.2411910292
H       -1.9246964650   -1.2806325154    1.5161617881
H        2.4785929802    4.2863637505    2.0716822714
H        3.8541140327    3.1728679036    1.8592438088
H        3.7786960347    4.6787941084    0.9220611017
H        3.0409353064   -2.4182718178    4.6260354094
H        2.2728180679   -2.7190095625    6.1952011703
H        2.5371548246   -1.0478268803    5.6605370526
H        3.1300746865    2.7456442144   -0.4975828561
H        1.7882012687    3.8725091810   -0.2894821315
H        0.1914517723   -2.6386133153    5.0205598439
25   

C       -0.1134142309   -0.3655406810    1.0840930964
C        1.5073228748   -0.5633423129    2.7973350023
C       -0.9339887751   -1.2174488125    1.8238720473
C        1.1693194218   -0.0679607045    1.5422480382
C        0.6302674770   -1.4112782889    3.4779314061
C        2.0741851249    0.9292091628    0.8797495816
C        3.3419700336    3.7517031288    1.4316839476
C        2.2282907561   -1.8851054779    5.3591016147
C        2.3625868717    3.2226614511    0.3887140448
N       -0.5631567641   -1.7414006486    3.0000676006
N        0.9208586446   -1.9751803835    4.6974894835
O        3.2428044756    0.6456277207    0.6366928794
O        1.5506166020    2.1719013569    0.9327287296
H       -0.4732379055    0.0489875027    0.1509341446
H        2.4611501272   -0.3007960430    3.2321932377
H       -1.9146911170   -1.4631556938    1.4333676131
H        2.7980023684    4.1143281022    2.3087516255
H        4.0355386268    2.9640175440    1.7407656037
H        3.9219476427    4.5775557418    1.0094879646
H        3.0240027656   -2.2199080577    4.6852031730
H        2.2410194214   -2.5272755601    6.2455006012
H        2.4255757990   -0.8562437236    5.6774683820
H        2.9126540959    2.8758721641   -0.4934596291
H        1.7090769378    4.0390484032    0.0654398045
H        0.1828703210   -2.5855042250    5.0303347263
25   

C       -0.0250696006   -0.6342197165    0.9170967110
C        1.4465039748   -0.5115178132    2.7729245118
C       -0.7558724787   -1.5935970470    1.6181687406
C        1.1049630317   -0.0657313930    1.5003941698
C        0.6658387480   -1.4826401616    3.4054132433
C        1.9627876354    0.9576757738    0.8134414703
C        3.5380041464    3.5977939232    1.3136312319
C        2.1920704817   -1.7134508625    5.3885120459
C        2.2949370967    3.2757041675    0.4900219730
N       -0.4159869495   -2.0105839670    2.8459804383
N        0.9494672944   -1.9816059934    4.6544283882
O        2.8892017429    0.6339678870    0.0782295906
O        1.5505995361    2.2105863176    1.0979212205
H       -0.3386566627   -0.3380699484   -0.0759985691
H        2.3179968063   -0.1063154990    3.2660586020
H       -1.6337804566   -2.0230553241    1.1495848725
H        3.2523790191    3.8697347977    2.3341948713
H        4.2089020240    2.7340244762    1.3472809228
H        4.0749842894    4.4373316131    0.8626141816
H        3.0630139118   -1.9385191069    4.7638534522
H        2.2408422360   -2.3470266379    6.2798509357
H        2.2297783694   -0.6669511140    5.7081246727
H        2.5840754426    3.0206392650   -0.5357236543
H        1.6585928693    4.1647523256    0.4382404787
H        0.2909617300   -2.6963406301    4.9438458824
25   

C        0.0919378838   -0.8360383799    0.8084649620
C        1.3754249784   -0.4491834931    2.7559473177
C       -0.5304167969   -1.8888173172    1.4780994474
C        1.0313365455   -0.0455824336    1.4697048514
C        0.7160685923   -1.5255721962    3.3563973734
C        1.8358574251    1.0114430516    0.7719612644
C        3.6504092055    3.4882389706    1.1931264046
C        2.1489341895   -1.5258263908    5.4207230176
C        2.2390458244    3.3393607813    0.6330109206
N       -0.2295514175   -2.2225823700    2.7402917586
N        0.9962846497   -1.9682188272    4.6270459777
O        2.3915932761    0.7663874611   -0.2938734112
O        1.5694971188    2.2396673084    1.2656115009
H       -0.1634328018   -0.6287213817   -0.2235013735
H        2.1486985098    0.0805237915    3.2928099952
H       -1.2812830758   -2.4678568408    0.9531096930
H        3.6105407924    3.6361097620    2.2766148045
H        4.2442067075    2.5952973854    0.9750510751
H        4.1422319564    4.3529177931    0.7382170159
H        3.0742621003   -1.6330040007    4.8448556551
H        2.2369540201   -2.1410419872    6.3218737925
H        2.0255003690   -0.4821113812    5.7274148121
H        2.2806873673    3.2095789029   -0.4541480557
H        1.6752222820    4.2563937040    0.8307777287
H        0.4337300194   -2.7707543893    4.8876325519
25   

C        0.1098786553   -0.8794190482    0.7721753256
C        1.3109634356   -0.3814774233    2.7450938763
C       -0.4475010277   -1.9713094178    1.4359695299
C        0.9698053838   -0.0121552857    1.4471367435
C        0.7205736418   -1.5003036896    3.3397281571
C        1.7132082991    1.0875839118    0.7530705716
C        3.7361089244    3.3995319984    1.1516946857
C        2.0921635553   -1.3699149811    5.4416053250
C        2.2461850086    3.3932172247    0.8227710610
N       -0.1535780379   -2.2720120693    2.7077935068
N        1.0034649560   -1.9121543100    4.6201014461
O        2.0725268324    0.9549798471   -0.4128021169
O        1.6120859241    2.2560960688    1.4249874581
H       -0.1342924410   -0.7017687521   -0.2682669137
H        2.0289279891    0.2086260129    3.2958855750
H       -1.1382617668   -2.6100426924    0.8978385644
H        3.8811407438    3.4099879482    2.2362363240
H        4.2234942476    2.5133165445    0.7338114926
H        4.2078365863    4.2895942491    0.7253711774
H        3.0404170502   -1.4096345971    4.8951979044
H        2.2007549564   -1.9655514187    6.3535992601
H        1.8767847986   -0.3358622595    5.7296924153
H        2.1036437525    3.4011138499   -0.2635550662
H        1.7866802026    4.3042364757    1.2188073420
H        0.4969155924   -2.7527772036    4.8753952934
25   

C        0.1450803277   -0.8961621081    0.7413594584
C        1.2668838117   -0.3354897300    2.7450069431
C       -0.3629802246   -2.0211057106    1.3891125564
C        0.9446829862    0.0132579000    1.4358329513
C        0.7282044410   -1.4889398205    3.3222628207
C        1.6187093045    1.1674762983    0.7636076975
C        3.8054416834    3.3378804225    1.0967351101
C        2.0236439139   -1.2750573581    5.4655662272
C        2.2844524916    3.4259541909    1.0127243042
N       -0.0815380319   -2.3094529792    2.6664837396
N        1.0003075164   -1.8867130722    4.6094669092
O        1.8213027933    1.1561689277   -0.4469536272
O        1.6882116498    2.2482142631    1.5742785240
H       -0.0904155439   -0.7272367800   -0.3026954315
H        1.9318326832    0.2937816572    3.3187167482
H       -1.0039049828   -2.6959611065    0.8336664923
H        4.1174684800    3.2109465273    2.1378045022
H        4.1725029950    2.4919654086    0.5074435561
H        4.2537410125    4.2553511459    0.7046016285
H        2.9906145225   -1.2552061029    4.9518622578
H        2.1384997850   -1.8610386460    6.3830226749
H        1.7333214563   -0.2563091653    5.7422280930
H        1.9759700110    3.5709613119   -0.0286019530
H        1.9430686778    4.2983718770    1.5786556638
H        0.5378189531   -2.7562575745    4.8510278355
25   

C        0.1715321727   -0.9225712910    0.7286758736
C        1.2213561849   -0.3218557174    2.7609736049
C       -0.2984681414   -2.0731296507    1.3596370643
C        0.9256943321    0.0121473110    1.4410200236
C        0.7218886657   -1.5016911028    3.3201100449
C        1.5266111330    1.2178166999    0.7911165458
C        3.8488820878    3.2677607248    0.9816993741
C        1.9340660942   -1.2269408759    5.5055691176
C        2.3396362712    3.4118743267    1.1534679550
N       -0.0313904321   -2.3562913366    2.6410510010
N        0.9759604378   -1.8910451950    4.6136951609
O        1.5852143410    1.3123590001   -0.4314723675
O        1.7815435498    2.2016743472    1.6846133256
H       -0.0577096083   -0.7552961445   -0.3171337216
H        1.8376075161    0.3323996351    3.3604119454
H       -0.8984208283   -2.7715972945    0.7878428608
H        4.3146121575    3.0224342146    1.9409316068
H        4.0778515364    2.4773651402    0.2603117335
H        4.2729797890    4.2068288673    0.6145454602
H        2.9169588006   -1.1570064893    5.0277230602
H        2.0451308330   -1.8058276195    6.4279775108
H        1.5813460406   -0.2245454755    5.7692216642
H        1.8786266944    3.6749693420    0.1948813324
H        2.1338088563    4.2306573489    1.8499995494
H        0.5479087583   -2.7817875366    4.8409494289
25   

C        0.2229537259   -0.9222996629    0.7184756970
C        1.1930840094   -0.3049847980    2.7862085373
C       -0.2191003603   -2.0972313306    1.3238465409
C        0.9360440605    0.0249057155    1.4567222080
C        0.7231304691   -1.5094200444    3.3182209055
C        1.4674248711    1.2804174288    0.8405157902
C        3.8879942323    3.2341130760    0.8497403562
C        1.8438057208   -1.2048966018    5.5486527092
C        2.4307218543    3.4000593536    1.2699600675
N        0.0255800030   -2.3859045317    2.6083003041
N        0.9480166836   -1.9004933903    4.6167995298
O        1.3960685758    1.4714741595   -0.3701895914
O        1.9096351660    2.1599118889    1.7689637425
H        0.0051155644   -0.7475277977   -0.3285947743
H        1.7574833007    0.3645331784    3.4186465188
H       -0.7800261976   -2.8092153243    0.7295417431
H        4.4860277982    2.8844500071    1.6966259687
H        3.9702075344    2.5122014729    0.0314620542
H        4.2880355576    4.1932338050    0.5082834012
H        2.8398405444   -1.0895034128    5.1083046092
H        1.9449791780   -1.7867599041    6.4703192397
H        1.4396239105   -0.2205452279    5.8064079110
H        1.8385908193    3.7672022659    0.4241900279
H        2.3689446682    4.1526595003    2.0622377978
H        0.5483783129   -2.8095609069    4.8220918865
25   

C       -0.2165119604   -0.1446162557    1.1673604710
C        1.6037171909   -0.9779460576    2.4288019946
C       -1.0725134812   -0.6638138575    2.1368340252
C        1.1663382290   -0.2939569980    1.2958189243
C        0.6809617577   -1.4628724001    3.3605145745
C        2.1228154593    0.2448069853    0.2788622929
C        4.7248478646    1.9348359750   -0.0428641501
C        2.4251611299   -2.2690567736    4.9830277002
C        4.4007572614    0.4708664848   -0.3241232536
N       -0.6293462544   -1.3142648909    3.2200292884
N        1.0438504939   -2.1310808030    4.5058432541
O        1.7210440379    0.8447377347   -0.7142210761
O        3.4125524201   -0.0123886527    0.5971802610
H       -0.6329669744    0.3745632257    0.3121404379
H        2.6571845714   -1.1410891204    2.6025361269
H       -2.1411330345   -0.5343932506    2.0101004703
H        3.8371775706    2.5579582873   -0.1883458673
H        5.0786314488    2.0507844982    0.9859219070
H        5.5068795750    2.2798775318   -0.7254700294
H        2.9028740402   -1.2868441076    5.0627356764
H        3.0033427406   -2.9049529741    4.3047115460
H        2.4306207461   -2.7313541027    5.9752546484
H        5.3107954539   -0.1263710402   -0.2097830804
H        4.0639289297    0.3569087007   -1.3606622033
H        0.2438887338   -2.3941509182    5.0707294830
25   

C       -0.2424988328   -0.1810051679    1.1483379719
C        1.6037034535   -0.9329982818    2.4227966294
C       -1.0815385521   -0.7357287632    2.1130198631
C        1.1442244831   -0.2867055744    1.2766654845
C        0.6969887445   -1.4551369546    3.3500721083
C        2.0854181185    0.3288016418    0.2899209015
C        4.8075571685    1.8117891451    0.0283479907
C        2.4625680597   -2.1588744948    4.9965490079
C        4.3338081125    0.4403921511   -0.4434259428
N       -0.6176302159   -1.3672387727    3.1988439637
N        1.0811848039   -2.0955621256    4.5042153800
O        1.6735297041    1.0527423508   -0.6121061070
O        3.3595006478   -0.0920785284    0.4652459360
H       -0.6747595204    0.3291670891    0.2955598762
H        2.6629336881   -1.0368834855    2.6072350930
H       -2.1538791645   -0.6484303502    1.9817848680
H        3.9744309577    2.5212056060    0.0394406331
H        5.2281341443    1.7382331193    1.0357361229
H        5.5784746632    2.1918874173   -0.6482243862
H        2.8883096960   -1.1528011176    5.0731420560
H        3.0798122747   -2.7693610203    4.3294201894
H        2.4811162429   -2.6125625247    5.9925876337
H        5.1892505618   -0.2412523748   -0.4822496931
H        3.9295812496    0.5149763723   -1.4591897793
H        0.2895789670   -2.3923008934    5.0641856936
25   

C       -0.2619575352   -0.2142680279    1.1246241143
C        1.5968584167   -0.8835585500    2.4247445353
C       -1.0890412514   -0.8073819520    2.0769564935
C        1.1261735148   -0.2730978143    1.2641520783
C        0.7022150491   -1.4462392164    3.3396950748
C        2.0555403988    0.4204452873    0.3194364472
C        4.8754265428    1.6915343558    0.0653844292
C        2.4730515915   -2.0507378108    5.0189592226
C        4.2513135256    0.4505587652   -0.5659224940
N       -0.6126171188   -1.4207497539    3.1679869854
N        1.0989117946   -2.0614755775    4.5031513679
O        1.6391693144    1.2614206580   -0.4720699987
O        3.2908826578   -0.1320214487    0.3264492013
H       -0.7035410770    0.2875523811    0.2717292566
H        2.6581351120   -0.9268683557    2.6221167002
H       -2.1624102580   -0.7638739529    1.9329595032
H        4.1121860225    2.4556063866    0.2420496419
H        5.3483751402    1.4315916512    1.0172073646
H        5.6349984329    2.1071353923   -0.6030732595
H        2.8447328064   -1.0235602573    5.0968312322
H        3.1323747890   -2.6317281286    4.3659174594
H        2.4979379932   -2.4977657809    6.0178729575
H        5.0371822486   -0.2842425439   -0.7669297146
H        3.7941313643    0.7109036297   -1.5270894786
H        0.3139683375   -2.3943239350    5.0521225395
25   

C       -0.2618103020   -0.2561498032    1.1102043757
C        1.5955274571   -0.8465957482    2.4477772817
C       -1.0816697379   -0.8943386824    2.0395776943
C        1.1245164764   -0.2642390156    1.2737204557
C        0.7085620866   -1.4562539414    3.3396801923
C        2.0434978861    0.5074387316    0.3801788917
C        4.9378961707    1.5712650835    0.0731037321
C        2.4629095079   -1.9617881583    5.0672698383
C        4.1589523439    0.4991082656   -0.6831668859
N       -0.6015098329   -1.4942994825    3.1366228613
N        1.1076039271   -2.0536647999    4.5114426730
O        1.6289388871    1.4616209138   -0.2712103699
O        3.2170185075   -0.1383438967    0.1910952182
H       -0.7061306223    0.2399408986    0.2555006278
H        2.6536255917   -0.8322435405    2.6657346787
H       -2.1526914678   -0.8965947656    1.8733187908
H        4.2624217702    2.3557080131    0.4280036465
H        5.4524651205    1.1272045212    0.9306160125
H        5.6823180756    2.0258777876   -0.5869395604
H        2.7728571279   -0.9146448453    5.1493550916
H        3.1734011425   -2.5072643128    4.4377208496
H        2.4834578817   -2.4015636512    6.0695036941
H        4.8575837256   -0.2548785514   -1.0591353413
H        3.6594107337    0.9432890165   -1.5513320466
H        0.3267886998   -2.4260455656    5.0406074694
25   

C       -0.2560640708   -0.3054458523    1.1030834108
C        1.5843951871   -0.8080383827    2.4970110842
C       -1.0709822961   -0.9952118469    1.9995510511
C        1.1230993140   -0.2501357501    1.3081342066
C        0.7028402830   -1.4721302027    3.3547761370
C        2.0296696126    0.5950169907    0.4669097161
C        4.9684766265    1.4752327537    0.0372449800
C        2.4190574586   -1.8816456508    5.1444851571
C        4.0332407506    0.6022679807   -0.7942433473
N       -0.5955275238   -1.5804141260    3.1067233505
N        1.0945612063   -2.0548294669    4.5363104882
O        1.6282127208    1.6521616413   -0.0097769015
O        3.1182500865   -0.0962882479    0.0616781194
H       -0.6971253212    0.1805671358    0.2411347922
H        2.6321995329   -0.7337954502    2.7493211966
H       -2.1346352000   -1.0507953749    1.7988809948
H        4.3998237623    2.2397067745    0.5755406096
H        5.5135551946    0.8597344714    0.7593428734
H        5.6907361431    1.9740554257   -0.6154468123
H        2.6614501317   -0.8177412301    5.2376345408
H        3.1853458272   -2.3821585710    4.5437052478
H        2.4270805007   -2.3206340435    6.1472476167
H        4.6256140371   -0.1308805552   -1.3505998532
H        3.5021840164    1.2180941028   -1.5285605283
H        0.3174932600   -2.4727737859    5.0362122860
25   

C       -0.2182821939   -0.3491979472    1.0893618257
C        1.5738987443   -0.7582040912    2.5761807842
C       -1.0363624882   -1.0963533541    1.9358691167
C        1.1409319227   -0.2152010615    1.3706004875
C        0.6894562407   -1.4830730103    3.3800705680
C        2.0469643606    0.6835808577    0.5815031330
C        5.0056322734    1.3719956346   -0.0324333462
C        2.3264434913   -1.8032286082    5.2594974384
C        3.9092943964    0.7311378531   -0.8781188452
N       -0.5853713748   -1.6652895689    3.0619109955
N        1.0531887995   -2.0568275193    4.5748513904
O        1.7097196589    1.8347404343    0.3246080392
O        3.0159077256   -0.0191290977   -0.0433951811
H       -0.6400680924    0.1186871935    0.2082662564
H        2.6008835439   -0.6252670820    2.8834179117
H       -2.0825881241   -1.2135359125    1.6782231081
H        4.5734463706    2.0826966874    0.6786337167
H        5.5529322483    0.6014683978    0.5190674056
H        5.7077518070    1.9083047391   -0.6773382262
H        2.4943565945   -0.7266349768    5.3694674437
H        3.1567335858   -2.2499257673    4.7029766114
H        2.3045807908   -2.2471275088    6.2598905651
H        4.3664375632    0.0523754059   -1.6049336147
H        3.3746437034    1.5027580265   -1.4431347300
H        0.2766167476   -2.5250002601    5.0289297508
25   

C       -0.0861693601   -0.5363981111    0.9724913094
C        1.5730880981   -0.7082871741    2.6583183946
C       -0.8801391245   -1.3975164692    1.7301630667
C        1.1784032318   -0.1785902047    1.4342456214
C        0.7149022231   -1.5586686907    3.3604058566
C        2.0927780181    0.7569022311    0.6967483108
C        5.0776282326    1.1936221457   -0.0789226126
C        2.1977373819   -1.7229916772    5.3826497952
C        3.8317240727    0.8763781804   -0.9001220892
N       -0.4842023936   -1.9029328360    2.9069004886
N        1.0298333222   -2.1073885668    4.5807223851
O        2.0350698922    1.9717272149    0.8530719427
O        2.9135645128    0.0826175792   -0.1352794962
H       -0.4571118259   -0.1499322396    0.0315738745
H        2.5423539640   -0.4562377788    3.0631210167
H       -1.8601750729   -1.6670351682    1.3538427906
H        4.8146554846    1.7894073024    0.8004062008
H        5.5587849674    0.2666316212    0.2470532110
H        5.7868808285    1.7641352107   -0.6856047755
H        2.2296965509   -0.6366695950    5.5178536812
H        3.1210567222   -2.0605404930    4.9006983698
H        2.1373482272   -2.1865775096    6.3724594564
H        4.1238829609    0.3142773433   -1.7927069886
H        3.3626078454    1.8069196610   -1.2389962869
H        0.2788748590   -2.6778233420    4.9534199090
25   

C       -0.1289373474    0.3882284901    1.8521074645
C        1.5950536691   -0.5203387440    3.1958135702
C       -0.8937483103   -0.7401681601    2.1478595994
C        1.1296548116    0.5444761474    2.4313202580
C        0.7734528556   -1.6250903758    3.4350078714
C        2.0642035502    1.6652146493    2.0816458433
C        2.6669126220    3.8748462125   -0.0034111140
C        2.5264311653   -2.9192696075    4.6863868656
C        3.3922366533    2.5798834602    0.3500650744
N       -0.4520598947   -1.7292504662    2.9361534926
N        1.1609169488   -2.7042472904    4.1929324137
O        2.6102501119    2.3205159646    2.9631754359
O        2.4514899346    1.5905213845    0.7904744583
H       -0.5245480216    1.1445535792    1.1861420479
H        2.5908743118   -0.4792029734    3.6135993399
H       -1.8842619152   -0.8246878976    1.7161163847
H        1.9181700467    3.6861559185   -0.7787864049
H        2.1710552251    4.2885708111    0.8800394922
H        3.3826600064    4.6123071875   -0.3780435821
H        3.2407852243   -2.8933033952    3.8567467180
H        2.5974553730   -3.9006840753    5.1660195890
H        2.7928850251   -2.1560719061    5.4248001728
H        4.1534477766    2.7749894110    1.1135821641
H        3.9096439924    2.2038388373   -0.5380915881
H        0.4410686771   -3.4155330438    4.2546050718
25   

C       -0.0488893712    0.3170815805    1.7515942597
C        1.6169818908   -0.5496494558    3.1933458803
C       -0.8373869987   -0.7884102088    2.0702660154
C        1.1903809309    0.4867981722    2.3689902084
C        0.7739869883   -1.6336154415    3.4520654843
C        2.1632637171    1.5647232543    1.9994691637
C        2.6531913910    3.9703450809    0.1094762970
C        2.4705770292   -2.8938603131    4.8105901482
C        3.2907078959    2.5862759060    0.1862630555
N       -0.4354600303   -1.7457985739    2.9168906930
N        1.1232850747   -2.6838106978    4.2671115037
O        2.9008594947    2.0601826003    2.8460754783
O        2.3353237666    1.6271883076    0.6609239646
H       -0.4096911984    1.0448104385    1.0356570526
H        2.5996122322   -0.5042346095    3.6415225995
H       -1.8126917342   -0.8823347138    1.6069903266
H        1.7780359293    3.9447961557   -0.5469151435
H        2.3445577423    4.3047332832    1.1047029485
H        3.3726055856    4.6900096558   -0.2917967659
H        3.2105727129   -2.9060314429    4.0033839210
H        2.5160155471   -3.8573045503    5.3282398388
H        2.7225925820   -2.1061274554    5.5280155457
H        4.1770744133    2.6188422242    0.8295072304
H        3.6234357807    2.2878956424   -0.8128372596
H        0.3942617216   -3.3852987848    4.3326429173
25   

C       -0.0061990838    0.2427817190    1.6654983632
C        1.6311893514   -0.5846201496    3.1663688020
C       -0.8201795249   -0.8281089735    2.0339393023
C        1.2362900203    0.4113282767    2.2778993148
C        0.7619963625   -1.6349194866    3.4727922126
C        2.2366573867    1.4520709803    1.8829800443
C        2.6425512837    4.0475921470    0.2379738232
C        2.4157185926   -2.8531631755    4.9199261609
C        3.1666507649    2.6269638395    0.0502346513
N       -0.4446626050   -1.7494789372    2.9314203118
N        1.0801292947   -2.6472542516    4.3465024046
O        3.1070472375    1.8226718422    2.6657836859
O        2.2153311514    1.6766181279    0.5502564483
H       -0.3490283118    0.9425868185    0.9135728726
H        2.6090098666   -0.5383456069    3.6251799479
H       -1.7945050143   -0.9244667722    1.5690826453
H        1.6818841693    4.1641924026   -0.2727594531
H        2.5115935210    4.2693726853    1.3015595447
H        3.3533912863    4.7651774369   -0.1818781092
H        3.1664467517   -2.9216509378    4.1255295939
H        2.4356540493   -3.7884674500    5.4882993707
H        2.6729724257   -2.0332815095    5.5984394720
H        4.1369683551    2.5185241025    0.5474873882
H        3.3242183305    2.4402222300   -1.0166472821
H        0.3364203715   -3.3299241789    4.4396886192
25   

C        0.0205208668    0.1735650190    1.5875649655
C        1.6473094957   -0.6079978665    3.1289485267
C       -0.8142025446   -0.8581916889    2.0161950679
C        1.2752272714    0.3374285869    2.1769973632
C        0.7556736527   -1.6199876792    3.4940405384
C        2.2928626729    1.3492863493    1.7544323251
C        2.6595653477    4.1132088025    0.3874201179
C        2.3817466484   -2.7845160806    5.0152642590
C        3.0454018070    2.6999090165   -0.0387901911
N       -0.4539934143   -1.7388032668    2.9599521548
N        1.0519909075   -2.5866317509    4.4253990154
O        3.2628955384    1.6126407926    2.4605016044
O        2.1031844690    1.7486963904    0.4769495955
H       -0.3163939654    0.8438813952    0.8065440266
H        2.6238731681   -0.5577593173    3.5900944483
H       -1.7937540072   -0.9564598057    1.5628421594
H        1.6502138708    4.3490656160    0.0369639938
H        2.6906153068    4.2058309645    1.4773624192
H        3.3592042243    4.8356238628   -0.0428574317
H        3.1340530208   -2.9102827068    4.2293931004
H        2.3828078525   -3.6870745854    5.6346307961
H        2.6514283104   -1.9330072030    5.6485147865
H        4.0632357005    2.4736877373    0.2980461915
H        3.0431462190    2.6412492984   -1.1317194173
H        0.2947228968   -3.2479757212    4.5556849475
25   

C        0.0249969328    0.0996421541    1.5128651767
C        1.6517749399   -0.6378501857    3.0786437968
C       -0.8273733615   -0.8889534278    2.0039414433
C        1.2967201392    0.2531015914    2.0689075051
C        0.7406159500   -1.6070129313    3.5061960270
C        2.3240808932    1.2414399867    1.6137058883
C        2.6914870613    4.1437244643    0.5548274768
C        2.3479086169   -2.7094133729    5.0929951798
C        2.9157576603    2.7781541153   -0.0875992354
N       -0.4757391402   -1.7281062103    2.9879458435
N        1.0217213539   -2.5242330896    4.4908705450
O        3.3754864611    1.4040716251    2.2282347560
O        1.9878642539    1.8184027493    0.4385311760
H       -0.3121666226    0.7413093295    0.7082214206
H        2.6301435534   -0.5829697695    3.5353555176
H       -1.8153852137   -0.9859815662    1.5690387708
H        1.6633592141    4.4759700364    0.3824485931
H        2.8755660471    4.0944058661    1.6323942530
H        3.3762287681    4.8767883860    0.1186170297
H        3.0978731166   -2.8965053438    4.3171512379
H        2.3329265307   -3.5720043306    5.7667397784
H        2.6328200673   -1.8255898893    5.6731042866
H        3.9512382319    2.4570289547    0.0716804280
H        2.7626924167    2.8604826343   -1.1682186142
H        0.2518220621   -3.1610015237    4.6628207096
25   

C        0.0015824809    0.0230159497    1.4469485190
C        1.6331767285   -0.6590573192    3.0337092134
C       -0.8619076255   -0.9228302817    1.9990619680
C        1.2886617472    0.1698137672    1.9688291751
C        0.7095837906   -1.5863281372    3.5228825644
C        2.3164778368    1.1413422201    1.4788156812
C        2.7399965971    4.1391229458    0.7286750160
C        2.3081531345   -2.6137206251    5.1680992226
C        2.7782515361    2.8526997608   -0.0905433486
N       -0.5129662423   -1.7159663456    3.0215023006
N        0.9826709257   -2.4481195039    4.5586323909
O        3.4311052023    1.2114776125    1.9912055507
O        1.8634430729    1.8860432065    0.4460764992
H       -0.3381919884    0.6335660842    0.6195153431
H        2.6135811313   -0.5915096919    3.4842695695
H       -1.8576463186   -1.0226648681    1.5828113518
H        1.7245896258    4.5463187711    0.7420512039
H        3.0623113013    3.9478235783    1.7567333687
H        3.4113592096    4.8810517586    0.2866582285
H        3.0537945742   -2.8561333113    4.4034763600
H        2.2843092468   -3.4341521778    5.8923476594
H        2.6054489039   -1.7004169145    5.6938016141
H        3.8002498678    2.4581479150   -0.1162472786
H        2.4892815249    3.0759727270   -1.1223398356
H        0.2046954549   -3.0623025257    4.7714909625
