38   
Generated by ForceBalance from scan.xyz: Frame 1 of 11
C        2.1780110176   -0.0750790189   -0.0803216390
C        7.4381477584    1.8515897779   -0.0695555223
C        0.8649618838   -0.5592343806   -0.1162077772
C        8.7885176982    1.5198423506   -0.0747662594
C        8.2888731563   -0.8743856477   -0.1315828139
C        1.7272936679   -2.7223707354   -0.8032539664
C        6.9183180669   -0.5498781291   -0.2397425921
C        3.2660291773   -0.8901691190   -0.4089757886
C        3.0292694766   -2.2416501558   -0.7795254316
C        5.7256124032   -1.3355618686   -0.3722055490
C        6.5076643216    0.8114645233   -0.1649446720
C        9.2084802543    0.1668416234   -0.0157874507
C        0.6389815291   -1.8926315819   -0.4769160669
C        4.6530903875   -0.4628340478   -0.3592253505
C        4.1996417807   -3.1079511220   -1.2105304777
C        5.4983293788   -2.8187367617   -0.4328625420
C       11.0422037785   -1.3325696319    0.3108894078
C       -1.7300622584   -1.6886931903   -0.2160240746
N        5.1162003111    0.8383760366   -0.1987199814
O       10.5388826895   -0.0037944478    0.2964138292
O       -0.5951971596   -2.4843157311   -0.5402070225
H        2.3444338767    0.9520721916    0.2363346234
H        7.1278811073    2.8933520575   -0.0390706619
H        0.0467728543    0.1005030474    0.1487889352
H        9.5501133747    2.2892742866    0.0101237434
H        8.5971177269   -1.9134894320   -0.0966050132
H        1.5204178095   -3.7523228480   -1.0827672316
H        3.9307913156   -4.1658713662   -1.1305702137
H        4.3882948523   -2.9062246691   -2.2745033584
H        6.3363349227   -3.3267712461   -0.9225034001
H        5.4280774860   -3.2346037260    0.5830225060
H       12.1085359737   -1.2494321152    0.5278379282
H       10.9063331492   -1.8262317590   -0.6601939437
H       10.5602900264   -1.9342528928    1.0927649145
H       -2.5961102039   -2.3421976488   -0.3298866822
H       -1.8278920518   -0.8343937733   -0.8976316207
H       -1.6824185693   -1.3261599544    0.8184957775
H        4.5698980268    1.6650318451   -0.3946966722
38   
Generated by ForceBalance from scan.xyz: Frame 2 of 11
C        2.2041365125   -0.0842751097   -0.0538449980
C        7.4655490515    1.8441323299   -0.1354410804
C        0.8903886852   -0.5675612294   -0.0701269858
C        8.8107495299    1.5042193787   -0.2271104597
C        8.3082541370   -0.8854038219   -0.2156070408
C        1.7360045510   -2.7149074241   -0.8262216929
C        6.9393222027   -0.5541085605   -0.3361913076
C        3.2838279558   -0.8915495196   -0.4265833277
C        3.0382746457   -2.2344806912   -0.8218927075
C        5.7435250764   -1.3363593595   -0.4597372352
C        6.5301526031    0.8056544562   -0.2212972705
C        9.2299237129    0.1540942786   -0.0896124842
C        0.6562282966   -1.8925197668   -0.4558840011
C        4.6716253993   -0.4648553557   -0.3999822667
C        4.1981611223   -3.0909165228   -1.2985946323
C        5.5144888145   -2.8179641051   -0.5451001476
C       11.0173752963   -1.3204790964    0.5035663678
C       -1.7058155059   -1.6949246675   -0.1350540509
N        5.1381870916    0.8328543921   -0.2174794807
O       10.4928161277    0.0003013716    0.4379353597
O       -0.5792710062   -2.4828747504   -0.5038879963
H        2.3787185455    0.9352157768    0.2824999032
H        7.1610753168    2.8873651553   -0.0984469143
H        0.0787064055    0.0856435138    0.2289640504
H        9.5758823790    2.2710633692   -0.1405009439
H        8.6070171522   -1.9246358523   -0.1296373264
H        1.5222238059   -3.7383792510   -1.1238100622
H        3.9310707793   -4.1503998129   -1.2352038950
H        4.3623395354   -2.8663355026   -2.3620440988
H        6.3411197041   -3.3154589871   -1.0639088080
H        5.4669452827   -3.2542380025    0.4635835476
H       12.0431065450   -1.2210086797    0.8627178082
H       11.0213195647   -1.8032838608   -0.4819786821
H       10.4471095068   -1.9398809389    1.2080909188
H       -2.5746275122   -2.3456888623   -0.2434574622
H       -1.8191985574   -0.8252564846   -0.7944625743
H       -1.6337225640   -1.3561138068    0.9060754600
H        4.5905042533    1.6612176431   -0.4034276588
38   
Generated by ForceBalance from scan.xyz: Frame 3 of 11
C        2.2373037817   -0.1061974047   -0.0409288723
C        7.5034297531    1.8133665136   -0.1909372747
C        0.9224767402   -0.5868418569   -0.0430031614
C        8.8361203973    1.4522564886   -0.3543218747
C        8.3312259434   -0.9273991817   -0.2880331525
C        1.7464719314   -2.7190749576   -0.8616457696
C        6.9653145250   -0.5831505827   -0.4250936839
C        3.3069580443   -0.9081549351   -0.4521722742
C        3.0498096459   -2.2416731750   -0.8715665631
C        5.7643866413   -1.3579216342   -0.5440101276
C        6.5613633937    0.7770499786   -0.2730636824
C        9.2559930515    0.1099058718   -0.1425646125
C        0.6763077538   -1.9023386460   -0.4529939274
C        4.6961724598   -0.4858400284   -0.4432061479
C        4.1981159517   -3.0907847259   -1.3878046086
C        5.5290993280   -2.8368060660   -0.6536287093
C       10.9596905106   -1.3459220800    0.7015299277
C       -1.6783187440   -1.7062223319   -0.0807472296
N        5.1700054357    0.8065340330   -0.2389653422
O       10.4107563592   -0.0358786663    0.5951654619
O       -0.5617437432   -2.4882596873   -0.4901746231
H        2.4213173839    0.9051015626    0.3145904030
H        7.2105528954    2.8596199501   -0.1545704215
H        0.1185081414    0.0615292249    0.2858838843
H        9.6014053848    2.2210891316   -0.2711443627
H        8.6098163239   -1.9669675675   -0.1507463027
H        1.5243018787   -3.7354103670   -1.1770241807
H        3.9292823462   -4.1506984804   -1.3414499893
H        4.3431539481   -2.8445317698   -2.4492301266
H        6.3446971364   -3.3261242373   -1.1969804508
H        5.4983755389   -3.2922357157    0.3472780790
H       11.9249969057   -1.2305046181    1.1974976419
H       11.1079208731   -1.8041336820   -0.2840685690
H       10.3175587961   -1.9950589232    1.3107562628
H       -2.5509831906   -2.3523290600   -0.1860222523
H       -1.8027150061   -0.8215928123   -0.7178972877
H       -1.5840562174   -1.3912020837    0.9660693042
H        4.6229466082    1.6381802928   -0.4130093185
38   
Generated by ForceBalance from scan.xyz: Frame 4 of 11
C        2.2620829022   -0.1150489166   -0.0021634978
C        7.5299323026    1.8049870963   -0.2622474527
C        0.9468428909   -0.5939028667    0.0220857154
C        8.8440458865    1.4273508155   -0.5074526014
C        8.3419417776   -0.9414006018   -0.3915486723
C        1.7439573564   -2.7047656622   -0.8765686986
C        6.9765923452   -0.5857822752   -0.5327751073
C        3.3183397579   -0.9062838763   -0.4658164735
C        3.0471825202   -2.2282607077   -0.9122717522
C        5.7717971090   -1.3551219174   -0.6419634627
C        6.5785361928    0.7709587756   -0.3330959132
C        9.2695133863    0.0921016482   -0.2238605192
C        0.6876871337   -1.8980444699   -0.4152156903
C        4.7076132719   -0.4853153706   -0.4865108449
C        4.1788829872   -3.0645128183   -1.4833168766
C        5.5308987521   -2.8305113363   -0.7815569104
C       10.8618315649   -1.2872314400    0.9194431325
C       -1.6542889328   -1.7107215799    0.0327853621
N        5.1900415480    0.8003359310   -0.2603197191
O       10.2923773582    0.0019993683    0.6975500986
O       -0.5517753662   -2.4820907429   -0.4312287662
H        2.4580339861    0.8863080955    0.3745018438
H        7.2470990073    2.8536715985   -0.2164945129
H        0.1538238057    0.0460542426    0.3916198201
H        9.6201705515    2.1873152722   -0.4201911236
H        8.6079362903   -1.9779947483   -0.2089143329
H        1.5110816667   -3.7123812983   -1.2116423950
H        3.9100810000   -4.1251043850   -1.4564941592
H        4.2937080249   -2.7911928766   -2.5418083991
H        6.3301218502   -3.3066902172   -1.3596687385
H        5.5275981375   -3.3104063839    0.2084069580
H       11.7221358814   -1.1301404690    1.5722469183
H       11.1937187425   -1.7502187638   -0.0176333842
H       10.1460636643   -1.9516002568    1.4200381926
H       -2.5307069377   -2.3531606775   -0.0634073746
H       -1.7966687832   -0.8090605568   -0.5761126239
H       -1.5279115643   -1.4241788386    1.0844055742
H        4.6399727194    1.6366952422   -0.3994499358
38   
Generated by ForceBalance from scan.xyz: Frame 5 of 11
C        2.2969259955   -0.1325917374    0.0296000870
C        7.5674469354    1.7894913280   -0.3266334343
C        0.9812732315   -0.6092783055    0.0727852483
C        8.8576633041    1.3881618772   -0.6432385358
C        8.3622792404   -0.9678430050   -0.4861919047
C        1.7517465719   -2.6956055872   -0.8966222632
C        6.9978119407   -0.5979191190   -0.6286597889
C        3.3411117841   -0.9123889385   -0.4787943383
C        3.0554174298   -2.2220003850   -0.9516829078
C        5.7885410419   -1.3606741272   -0.7286816292
C        6.6065713129    0.7563856274   -0.3853180312
C        9.2921251089    0.0649731511   -0.2932460222
C        0.7066055289   -1.9010533545   -0.3908817188
C        4.7302521677   -0.4934628654   -0.5231220721
C        4.1707412392   -3.0462125335   -1.5704948185
C        5.5402152095   -2.8317722857   -0.8967614262
C       10.7286204258   -1.2508599088    1.1117946274
C       -1.6247681324   -1.7220053640    0.1151930856
N        5.2219533024    0.7852607578   -0.2765573936
O       10.1497281991    0.0143535769    0.7908729338
O       -0.5343743860   -2.4826690329   -0.3929537272
H        2.5036343324    0.8585363203    0.4269911009
H        7.2968539328    2.8412035692   -0.2811573547
H        0.1993354672    0.0231236696    0.4771625311
H        9.6387732345    2.1476854712   -0.5688625603
H        8.6080151695   -2.0021602352   -0.2631556527
H        1.5090478489   -3.6939875821   -1.2516231514
H        3.9001045583   -4.1066385843   -1.5628039876
H        4.2604070804   -2.7475501730   -2.6245576958
H        6.3241709056   -3.2958402843   -1.5047473915
H        5.5593382216   -3.3343070600    0.0817745579
H       11.4658552275   -1.0570271998    1.8927914145
H       11.2248165539   -1.7023398237    0.2447635663
H        9.9681262787   -1.9418104453    1.4970482048
H       -2.5042798860   -2.3607557274    0.0226666459
H       -1.7793381306   -0.8050681227   -0.4673660625
H       -1.4742589539   -1.4622777940    1.1706000936
H        4.6701675220    1.6254922477   -0.3828236443
38   
Generated by ForceBalance from scan.xyz: Frame 6 of 11
C        2.2347683201   -0.0700930444   -0.3026837829
C        7.4893174492    1.8224866834    0.2917078634
C        0.9276220234   -0.5502701381   -0.4476407040
C        8.7247087946    1.4111503474    0.7680939437
C        8.3223335949   -0.9262376593    0.3334599817
C        1.8251483802   -2.7921609954   -0.6930968308
C        6.9410980572   -0.5923000531    0.2901523371
C        3.3388719366   -0.9270784951   -0.3548312605
C        3.1225869036   -2.3168299247   -0.5610043877
C        5.7577802210   -1.3778355225    0.1033122999
C        6.5552607605    0.7753310794    0.1199722789
C        9.2437129278    0.1279208085    0.3813182151
C        0.7216820568   -1.9212864476   -0.6385675487
C        4.7166120643   -0.5064202352   -0.1700989724
C        4.3205096334   -3.2373828684   -0.7134828984
C        5.5099788718   -2.8563311786    0.1887266166
C       10.9321675598   -1.0373165313   -0.8701162953
C       -1.6553765662   -1.6741651491   -0.7364130639
N        5.2017232255    0.7947932094   -0.1718512732
O       10.2593053885    0.1833426217   -0.5582253671
O       -0.5061192394   -2.5124569512   -0.7830505177
H        2.3764792854    0.9939781521   -0.1257089227
H        7.1981204427    2.8696436685    0.3021306130
H        0.0968737505    0.1441880905   -0.3977021700
H        9.4874186534    2.1835094312    0.8857371876
H        8.6272149652   -1.9316791241    0.0564539094
H        1.6350768020   -3.8506377009   -0.8519313288
H        4.0201033172   -4.2747286473   -0.5359341934
H        4.6529602946   -3.1764169101   -1.7595541129
H        6.3959983012   -3.4244325337   -0.1158877415
H        5.2995176434   -3.1424099429    1.2293687661
H       11.7769152896   -0.7644046962   -1.5050209178
H       10.2723733563   -1.7182457889   -1.4227295815
H       11.2999425108   -1.5394958257    0.0322166768
H       -2.5132753499   -2.3344473383   -0.8710540551
H       -1.6406845542   -0.9294098690   -1.5421406417
H       -1.7391382949   -1.1630291583    0.2309237833
H        4.6411474183    1.6279241758   -0.2733278899
38   
Generated by ForceBalance from scan.xyz: Frame 7 of 11
C        2.2055247343   -0.0488463921   -0.2589569137
C        7.4702684108    1.8295316591    0.2452423233
C        0.8958041979   -0.5256137232   -0.3915065286
C        8.7370237012    1.4393651442    0.6583236682
C        8.3018326058   -0.9128091526    0.2638936377
C        1.7879907513   -2.7577674590   -0.7218770374
C        6.9238808655   -0.5806167986    0.2108055109
C        3.3084661829   -0.9028241700   -0.3605336030
C        3.0879642443   -2.2860270396   -0.6018954079
C        5.7368951977   -1.3629292520    0.0301500924
C        6.5352574254    0.7888025447    0.0852564367
C        9.2253058021    0.1345253079    0.3349562825
C        0.6852144218   -1.8902365056   -0.6200017017
C        4.6896518138   -0.4856236956   -0.1944782362
C        4.2826125326   -3.2020316593   -0.8006845157
C        5.4893650781   -2.8428981633    0.0878047838
C       10.9915967510   -1.1336062397   -0.6739036656
C       -1.6938485702   -1.6431544402   -0.6587543071
N        5.1702836663    0.8160576685   -0.1572117450
O       10.3797328284    0.1294028427   -0.4219995965
O       -0.5451448578   -2.4777088081   -0.7577503801
H        2.3517155110    1.0086461131   -0.0496578109
H        7.1770038462    2.8762928198    0.2532813263
H        0.0662620305    0.1663450225   -0.3025844035
H        9.5025683876    2.2085941567    0.7589279101
H        8.6116061328   -1.9288914461    0.0387615379
H        1.5948629008   -3.8114350199   -0.9067367883
H        3.9853273553   -4.2434789092   -0.6428860458
H        4.5950310662   -3.1152534629   -1.8510814717
H        6.3684804463   -3.4044039780   -0.2474060540
H        5.2979333404   -3.1534050450    1.1251865309
H       11.9390352571   -0.9176088991   -1.1706674525
H       10.3680663065   -1.7463502842   -1.3375769587
H       11.1834149837   -1.6844815499    0.2548502250
H       -2.5539249332   -2.3002160054   -0.7952339080
H       -1.6979108504   -0.8730605938   -1.4404153860
H       -1.7563695945   -1.1633201421    0.3260487466
H        4.6235875103    1.6486351317   -0.3191844478
38   
Generated by ForceBalance from scan.xyz: Frame 8 of 11
C        2.1882965780   -0.0499881867   -0.2226242823
C        7.4491881634    1.8466252880    0.1743182752
C        0.8781180177   -0.5308435530   -0.3328619005
C        8.7463566267    1.4803616400    0.5129541001
C        8.2944837449   -0.8863490114    0.1687370878
C        1.7737781472   -2.7505314716   -0.7416897259
C        6.9177220231   -0.5623072374    0.1100382719
C        3.2921032522   -0.8953425862   -0.3743110755
C        3.0737048133   -2.2737666276   -0.6436839441
C        5.7319974634   -1.3491738515   -0.0609048330
C        6.5188464295    0.8057082893    0.0282345987
C        9.2145956618    0.1595434999    0.2576094227
C        0.6705799843   -1.8908677238   -0.5898756604
C        4.6746752686   -0.4727813424   -0.2342782522
C        4.2677179358   -3.1774854772   -0.8951763611
C        5.4949176159   -2.8317385295   -0.0299410516
C       11.0560182668   -1.1925715015   -0.4560297258
C       -1.7095299104   -1.6563687519   -0.5599639834
N        5.1462546437    0.8313628273   -0.1754752572
O       10.4728361346    0.0976103331   -0.3021334441
O       -0.5597204508   -2.4816593737   -0.7107416134
H        2.3348089091    1.0027802336    0.0089891138
H        7.1475418109    2.8911466171    0.1835847625
H        0.0471323243    0.1533700258   -0.2053909242
H        9.5092251750    2.2508894963    0.6040579797
H        8.6124224677   -1.9086161934   -0.0098230544
H        1.5810660975   -3.8004488503   -0.9472885638
H        3.9805218460   -4.2242260159   -0.7546840905
H        4.5523963231   -3.0637266306   -1.9508453223
H        6.3677962840   -3.3801257817   -0.4011714862
H        5.3318997832   -3.1671697854    1.0046069632
H       12.0804505341   -1.0244625786   -0.7927928938
H       10.5200344631   -1.7805458025   -1.2124732028
H       11.0695443908   -1.7467521253    0.4907082928
H       -2.5696218576   -2.3146055080   -0.6905029057
H       -1.7381821355   -0.8665939133   -1.3211872252
H       -1.7481223868   -1.2022713953    0.4381690866
H        4.5924789725    1.6635029892   -0.3136518017
38   
Generated by ForceBalance from scan.xyz: Frame 9 of 11
C        2.1932614860   -0.0529921235   -0.1946125836
C        7.4415863559    1.8862639527    0.1010122162
C        0.8854842410   -0.5437068457   -0.2883753078
C        8.7646516937    1.5436142621    0.3535998550
C        8.3113096949   -0.8386513621    0.0733920661
C        1.7901905772   -2.7438350859   -0.7740232502
C        6.9336023391   -0.5264194904    0.0084389179
C        3.3002019569   -0.8843041075   -0.3935431616
C        3.0877485623   -2.2574746172   -0.6925800577
C        5.7512961147   -1.3211574431   -0.1527021250
C        6.5208374580    0.8380840102   -0.0302500698
C        9.2227757064    0.2124479123    0.1703720965
C        0.6832692466   -1.8983984999   -0.5762119716
C        4.6817349872   -0.4518604567   -0.2755872429
C        4.2836931544   -3.1441681387   -0.9914775633
C        5.5278681025   -2.8061615212   -0.1474023592
C       11.0935505266   -1.2125851185   -0.2747662089
C       -1.6975571220   -1.6860250746   -0.4880600424
N        5.1406050177    0.8553999570   -0.1872369516
O       10.5493904989    0.0982357462   -0.1838174204
O       -0.5444546945   -2.4967826915   -0.6854143449
H        2.3365725079    0.9942880064    0.0623171906
H        7.1267105836    2.9266988447    0.1197926445
H        0.0516609575    0.1291422654   -0.1243475196
H        9.5169666694    2.3224439424    0.4454440638
H        8.6338114422   -1.8665216606   -0.0523963760
H        1.6020410968   -3.7900515488   -1.0015726623
H        4.0089589343   -4.1963184063   -0.8673490541
H        4.5428458160   -3.0049758496   -2.0506501683
H        6.3962883802   -3.3383703879   -0.5511598593
H        5.3917316623   -3.1654511614    0.8830728660
H       12.1588636169   -1.0843907043   -0.4741378876
H       10.6381384667   -1.7762286177   -1.0995489478
H       10.9623987380   -1.7709094575    0.6609172493
H       -2.5547556035   -2.3483607564   -0.6168813619
H       -1.7496245880   -0.8771149257   -1.2276394686
H       -1.7178975376   -1.2582761763    0.5221730196
H        4.5847476807    1.6824301635   -0.3469166829
38   
Generated by ForceBalance from scan.xyz: Frame 10 of 11
C        2.1655390512   -0.0446428270   -0.1518063131
C        7.4148606155    1.8994217906    0.0506880550
C        0.8567073735   -0.5357257718   -0.2269738739
C        8.7543904331    1.5693841977    0.2217331800
C        8.2852996717   -0.8221748488    0.0129442198
C        1.7538304868   -2.7226309900   -0.7798092980
C        6.9095923298   -0.5101996809   -0.0676669743
C        3.2691232488   -0.8689649543   -0.3938178574
C        3.0522903907   -2.2358820471   -0.7169695875
C        5.7255250678   -1.3046243608   -0.2194367476
C        6.4939478209    0.8524834615   -0.0689509482
C        9.1970648004    0.2267181914    0.1175142676
C        0.6498896822   -1.8842524663   -0.5395744655
C        4.6520259639   -0.4356115583   -0.2978972182
C        4.2428388802   -3.1141708462   -1.0592129707
C        5.5044694672   -2.7899227989   -0.2357737857
C       11.0728754489   -1.2443243718   -0.0738969063
C       -1.7289116054   -1.6789465860   -0.3944292103
N        5.1083598024    0.8711896409   -0.1841795363
O       10.5600999407    0.0791192589   -0.0146445978
O       -0.5789855682   -2.4827777629   -0.6341880639
H        2.3137194752    0.9966210473    0.1257337940
H        7.0972742240    2.9391154380    0.0713315303
H        0.0258174240    0.1316842200   -0.0293391075
H        9.5079509591    2.3464060506    0.3093679869
H        8.6078269041   -1.8549776696   -0.0585822593
H        1.5623122128   -3.7642565408   -1.0248768977
H        3.9725776451   -4.1690879156   -0.9496293782
H        4.4789047558   -2.9539269117   -2.1207936380
H        6.3646697157   -3.3129398452   -0.6680147829
H        5.3905799721   -3.1682527144    0.7906462768
H       12.1579331120   -1.1451054041   -0.1360534599
H       10.7072037277   -1.7758134096   -0.9624216925
H       10.8114673503   -1.8193247873    0.8240571314
H       -2.5875658951   -2.3402458535   -0.5187904197
H       -1.7984177978   -0.8544914659   -1.1151573832
H       -1.7279777509   -1.2730191745    0.6249651121
H        4.5557375678    1.6965942474   -0.3638379006
38   
Generated by ForceBalance from scan.xyz: Frame 11 of 11
C        2.1559117182   -0.0732720647   -0.1037194752
C        7.4170985897    1.8463896138   -0.0040007792
C        0.8431231988   -0.5565034304   -0.1601988380
C        8.7650304681    1.5152150682    0.0757060513
C        8.2704685920   -0.8786030138   -0.0530226570
C        1.7173974335   -2.7346520922   -0.7821544782
C        6.8981055375   -0.5574564464   -0.1447017520
C        3.2497752094   -0.8962991424   -0.3898228091
C        3.0191189992   -2.2548912968   -0.7380067439
C        5.7071344102   -1.3444803955   -0.2846898122
C        6.4886338837    0.8055666287   -0.1080071742
C        9.1896338430    0.1634437091    0.0533357869
C        0.6233441530   -1.8966630586   -0.4984407171
C        4.6362228230   -0.4701427230   -0.3168332456
C        4.1976876782   -3.1309766451   -1.1246120987
C        5.4789376612   -2.8282660912   -0.3234486990
C       11.0480900206   -1.3397598244    0.1244213133
C       -1.7504113049   -1.6836747720   -0.2970976053
N        5.0988331665    0.8331767932   -0.1776471743
O       10.5533203155   -0.0085021916    0.1401818237
O       -0.6100934074   -2.4877453008   -0.5785147964
H        2.3162393579    0.9602127277    0.1950442650
H        7.1046731345    2.8876204356    0.0210698490
H        0.0201949078    0.1097391176    0.0718373441
H        9.5248586934    2.2862918292    0.1581783662
H        8.5838799409   -1.9164210885   -0.0707654273
H        1.5151475399   -3.7698020300   -1.0454123415
H        3.9252136366   -4.1867429537   -1.0297767645
H        4.4107812288   -2.9507253168   -2.1878298333
H        6.3268958761   -3.3463461066   -0.7847009785
H        5.3856837460   -3.2255116820    0.6979648782
H       12.1336068824   -1.2591903666    0.2030724093
H       10.7898430984   -1.8537804331   -0.8108475346
H       10.6654620660   -1.9211688751    0.9735997628
H       -2.6149584673   -2.3379091666   -0.4178385772
H       -1.8304295667   -0.8432629756   -0.9980249803
H       -1.7259754774   -1.3002121571    0.7306684877
H        4.5548800153    1.6588846023   -0.3828712226
