18   

C       -0.8336739444   -1.4334048861   -1.2121064144
C       -0.1697352743   -0.3462281972   -0.7128072135
C       -0.3635225376   -2.8679003690   -1.3806014513
C        1.0099945541    1.2742054640    0.7969270888
C       -1.4286623041    0.7542883980    1.1389845162
C       -0.0714820229    0.1949722070    0.7084843031
H       -1.4514754180   -1.1684390538   -2.0637439629
H       -0.0551094170    0.4501206206   -1.4409018870
H       -0.4133070329   -3.1636597506   -2.4327676155
H       -0.9968047361   -3.5395807089   -0.7939371342
H        0.6699451197   -2.9693054847   -1.0359930654
H        0.7760674987    2.1147453466    0.1359398133
H        1.9795263462    0.8576416013    0.5058071424
H        1.0900974224    1.6471542927    1.8229017936
H       -1.7327771904    1.5724674601    0.4780759701
H       -1.3764581489    1.1324551783    2.1646958217
H       -2.1913196512   -0.0296655409    1.0978799052
H        0.2014661066   -0.6273472432    1.3783967211
18   

C       -0.8398098099   -1.3706223320   -1.3092607874
C       -0.2381922569   -0.2587590809   -0.8086617955
C       -0.3285775671   -2.7972180965   -1.2894481677
C        1.0277161057    1.2026454908    0.7795796500
C       -1.4250360613    0.7622575099    1.1295405987
C       -0.0988465488    0.1768490060    0.6409115911
H       -1.4023619284   -1.1781836316   -2.2167594381
H       -0.2281948122    0.5852743936   -1.4905421444
H       -0.2832790535   -3.1978894091   -2.3064986585
H       -0.9959201352   -3.4245200197   -0.6914238752
H        0.6739571215   -2.8344544863   -0.8525461062
H        0.8187418907    2.0930736861    0.1782323887
H        1.9744516432    0.7671090741    0.4445921183
H        1.1388377285    1.5042748590    1.8259205990
H       -1.7024616181    1.6362263589    0.5313272628
H       -1.3436303017    1.0658116964    2.1779022040
H       -2.2209407216    0.0154713475    1.0466925073
H        0.1469806239   -0.6990540813    1.2508218649
18   

C       -0.8242707866   -1.3267154368   -1.4061564564
C       -0.3063203137   -0.1906083648   -0.8872719649
C       -0.3033438095   -2.7334403086   -1.2091878921
C        1.0328483213    1.1354298679    0.7500780059
C       -1.4263920363    0.7577392817    1.1217406280
C       -0.1291516213    0.1556099950    0.5789616335
H       -1.3230792447   -1.1957680359   -2.3605928990
H       -0.3611176334    0.6788398089   -1.5341160411
H       -0.1634699011   -3.2232994896   -2.1773880849
H       -1.0159007985   -3.3158572461   -0.6179002304
H        0.6567402192   -2.7143987899   -0.6844453645
H        0.8425558444    2.0628999888    0.2007333279
H        1.9585734137    0.6885257290    0.3739156040
H        1.1723234506    1.3767574203    1.8086027375
H       -1.6828080086    1.6727072680    0.5779717992
H       -1.3185342984    0.9989278619    2.1838415436
H       -2.2486208935    0.0437211249    1.0112141564
H        0.0958497812   -0.7590707037    1.1378452274
18   

C       -0.7716014029   -1.2839270259   -1.4816174882
C       -0.3574211586   -0.1310372482   -0.9214606145
C       -0.2866689025   -2.6744479848   -1.1472949851
C        1.0373595642    1.0982536509    0.7371036200
C       -1.4214173682    0.7573083412    1.1397826645
C       -0.1473685130    0.1490367118    0.5511803067
H       -1.1940111368   -1.1882292232   -2.4762206191
H       -0.4549354668    0.7542313842   -1.5411904136
H       -0.0750070318   -3.2298148473   -2.0658133867
H       -1.0526477407   -3.2104146910   -0.5792708781
H        0.6287944381   -2.6286686757   -0.5496676665
H        0.8556419792    2.0497886183    0.2273872330
H        1.9465461832    0.6482613442    0.3259239424
H        1.2015555996    1.2956803361    1.8011622289
H       -1.6667888690    1.6985761320    0.6374130434
H       -1.2905183625    0.9533245662    2.2085918901
H       -2.2608096682    0.0658262799    1.0155571145
H        0.0672711648   -0.7893263169    1.0732700881
18   

C       -0.6957058745   -1.2545540246   -1.5481569768
C       -0.3985501179   -0.0926264753   -0.9421290880
C       -0.2818812106   -2.6388601118   -1.1160452258
C        1.0400270246    1.0735062112    0.7185946305
C       -1.4155844476    0.7589245797    1.1545462588
C       -0.1608490008    0.1450796108    0.5314880430
H       -1.0368493935   -1.1753243884   -2.5748634647
H       -0.5266428296    0.8015207411   -1.5432342696
H       -0.0296699893   -3.2447526546   -1.9913463564
H       -1.1016425278   -3.1227122214   -0.5770146275
H        0.5948715123   -2.5944965530   -0.4631648577
H        0.8627341788    2.0390248270    0.2341774565
H        1.9356458085    0.6211490019    0.2810781220
H        1.2252816379    1.2438942371    1.7838586161
H       -1.6543698538    1.7155800640    0.6788121540
H       -1.2647823946    0.9271360142    2.2254938123
H       -2.2673629780    0.0832214600    1.0276647087
H        0.0480370627   -0.8059929948    1.0316902494
18   

C       -0.5900324873   -1.2463418167   -1.5965821440
C       -0.4226517702   -0.0827362683   -0.9494858760
C       -0.2687673155   -2.6311484366   -1.0975558449
C        1.0396527350    1.0530860002    0.7066730135
C       -1.4137739566    0.7562435438    1.1628982269
C       -0.1706695892    0.1362481441    0.5230093098
H       -0.8425618695   -1.1729406713   -2.6490120326
H       -0.5715230335    0.8144498311   -1.5411900176
H        0.0079662922   -3.2760403629   -1.9368129785
H       -1.1417619221   -3.0603019230   -0.5971511984
H        0.5686039535   -2.6059092817   -0.3942194218
H        0.8653810615    2.0244529309    0.2329027734
H        1.9271166424    0.5977289651    0.2558413914
H        1.2369882083    1.2121643961    1.7715014945
H       -1.6482226746    1.7193519010    0.6981961792
H       -1.2515695964    0.9131995518    2.2339145616
H       -2.2727732486    0.0893590081    1.0379957754
H        0.0345879631   -0.8194516715    1.0151236922
18   

C       -0.4899752133   -1.2410624136   -1.6235686469
C       -0.4686914656   -0.0836955233   -0.9457924111
C       -0.2452080909   -2.6283210756   -1.0908728950
C        1.0446048826    1.0161207974    0.6848771844
C       -1.4109638328    0.7988748755    1.1721118639
C       -0.1955519680    0.1359829100    0.5220895366
H       -0.6660543197   -1.1678930706   -2.6914648095
H       -0.6605947993    0.8102917771   -1.5298928612
H        0.0513927163   -3.2949171420   -1.9060008113
H       -1.1576825545   -3.0193162349   -0.6312966416
H        0.5552581066   -2.6216055894   -0.3455266058
H        0.8942393425    1.9888514339    0.2056364186
H        1.9122912520    0.5307827637    0.2269248345
H        1.2592906177    1.1770641935    1.7460412831
H       -1.6207798988    1.7662544485    0.7046192836
H       -1.2314459961    0.9564205407    2.2403009099
H       -2.2916761728    0.1582977181    1.0613570740
H       -0.0146400843   -0.8220279994    1.0190473222
18   

C       -0.3891869077   -1.2267656651   -1.6375780312
C       -0.5150830585   -0.0925639795   -0.9315600263
C       -0.2229356395   -2.6270428803   -1.1070041521
C        1.0297134039    1.0018692103    0.6697518721
C       -1.4187248756    0.8057087580    1.2010082024
C       -0.2200658862    0.1310665964    0.5322191222
H       -0.5786410493   -1.1472166926   -2.7027289950
H       -0.7792696697    0.7929193156   -1.5001936012
H        0.8398630316   -2.8614274683   -0.9964598608
H       -0.6712523829   -3.3450355466   -1.8000540529
H       -0.7146738964   -2.7352920152   -0.1359296605
H        0.8789278524    1.9732905270    0.1879881667
H        1.8856222763    0.5073991802    0.1995021389
H        1.2637807356    1.1662811975    1.7262567622
H       -1.6289391896    1.7733610696    0.7342733144
H       -1.2191768945    0.9652354224    2.2653572172
H       -2.3062177559    0.1717755246    1.1078611632
H       -0.0338128987   -0.8264396997    1.0283651698
18   

C       -0.2734334290   -1.2126172925   -1.6336765573
C       -0.5320326296   -0.1064674966   -0.9158979747
C       -0.2165930404   -2.6327442386   -1.1294115171
C        1.0277176652    1.0045571410    0.6615520356
C       -1.4183358783    0.8261760856    1.2129550281
C       -0.2273031490    0.1382352143    0.5441752150
H       -0.3740330924   -1.1093789077   -2.7088528182
H       -0.8179773228    0.7717023590   -1.4853606724
H        0.8233869055   -2.9294978359   -0.9649290431
H       -0.6640611153   -3.3091449144   -1.8636613336
H       -0.7669175625   -2.7317653192   -0.1890637144
H        0.8778833878    1.9700743414    0.1677328902
H        1.8780387637    0.4999866041    0.1919107852
H        1.2698776191    1.1821413568    1.7140668382
H       -1.6287554950    1.7882792666    0.7350428960
H       -1.2099001439    0.9990805989    2.2735196361
H       -2.3086723534    0.1941560461    1.1352867055
H       -0.0421420363   -0.8151359447    1.0493222592
18   

C       -0.1737253589   -1.2243199836   -1.6025073864
C       -0.5539136276   -0.1512097665   -0.8825300680
C       -0.2174370671   -2.6679401607   -1.1614523643
C        1.0276352100    1.0035183856    0.6456306409
C       -1.4135686527    0.8516711802    1.2299629270
C       -0.2326901867    0.1402981050    0.5676674776
H       -0.1917439802   -1.0881314033   -2.6785889083
H       -0.8729258008    0.7116791309   -1.4577940094
H        0.7950445535   -3.0249774610   -0.9515938049
H       -0.6545130936   -3.2886992105   -1.9491908406
H       -0.8241934674   -2.7751222868   -0.2571924703
H        0.8764836416    1.9541735752    0.1241180589
H        1.8708056085    0.4812067010    0.1825830705
H        1.2816339078    1.2120980521    1.6896082534
H       -1.6270148513    1.7999273261    0.7264732282
H       -1.1917457585    1.0550769349    2.2823787477
H       -2.3065175663    0.2203920445    1.1818900856
H       -0.0467671971   -0.8008621243    1.0957045765
18   

C       -0.0890115614   -1.2532810312   -1.5547133740
C       -0.5755706038   -0.2180918761   -0.8336746799
C       -0.2148024113   -2.7250021474   -1.2272229640
C        1.0251297756    1.0041917732    0.6270910260
C       -1.4116370166    0.8895009901    1.2416315475
C       -0.2397579753    0.1443339528    0.6005408683
H       -0.0293527847   -1.0663431724   -2.6216721783
H       -0.9405476572    0.6200537053   -1.4181863280
H        0.7672265890   -3.1369175366   -0.9771973548
H       -0.6186085369   -3.2696993725   -2.0858170978
H       -0.8846986750   -2.8697715953   -0.3741347830
H        0.8731220163    1.9295638596    0.0621306305
H        1.8623595085    0.4570207936    0.1824016794
H        1.2887248436    1.2612253064    1.6577776798
H       -1.6279197311    1.8142620820    0.6973610832
H       -1.1780063020    1.1404804849    2.2811472489
H       -2.3066950626    0.2594430413    1.2323318488
H       -0.0536265846   -0.7741580655    1.1674136946
18   

C       -0.0294133087   -1.2896162290   -1.4729457694
C       -0.5939350248   -0.2949262756   -0.7376291920
C       -0.2105651799   -2.7858309377   -1.3134086143
C        1.0260302500    1.0086660114    0.6349819340
C       -1.4085585836    0.9575474435    1.2694672859
C       -0.2474527274    0.1617628789    0.6701420109
H        0.0940615017   -1.0283523868   -2.5186735142
H       -1.0260215154    0.5045349327   -1.3306016251
H        0.7417891458   -3.2501608714   -1.0415523791
H       -0.5647285702   -3.2268469894   -2.2499203831
H       -0.9417200464   -2.9973216295   -0.5272597667
H        0.8799800484    1.8957410732    0.0101516713
H        1.8563624786    0.4253913351    0.2246690640
H        1.2963156154    1.3313955343    1.6452420851
H       -1.6208083762    1.8475415024    0.6686247731
H       -1.1655280459    1.2726231413    2.2891834893
H       -2.3089891473    0.3362112582    1.3066551830
H       -0.0679979060   -0.7207080207    1.2935751168
18   

C        0.0143144971   -1.3486016048   -1.3833532669
C       -0.6022865280   -0.3901021141   -0.6262870756
C       -0.2004080878   -2.8519935571   -1.4136350292
C        1.0344537929    1.0019095391    0.6419998325
C       -1.3995971743    1.0317938990    1.2814270244
C       -0.2497384599    0.1769162750    0.7436842311
H        0.1952386579   -1.0034686271   -2.3959349883
H       -1.1374949932    0.3407761255   -1.2236155258
H        0.7253140587   -3.3668067769   -1.1409049455
H       -0.5022148873   -3.1732782010   -2.4149814116
H       -0.9826114192   -3.1359125456   -0.7032539398
H        0.8991619515    1.8369494596   -0.0530594426
H        1.8578683029    0.3774352576    0.2815279028
H        1.3081523481    1.4025271652    1.6230266868
H       -1.6026160833    1.8753266583    0.6140671919
H       -1.1500053009    1.4219642172    2.2731943424
H       -2.3074378453    0.4264009371    1.3685639835
H       -0.0820421353   -0.6558700849    1.4349420911
