17   
Generated by ForceBalance from scan.xyz: Frame 1 of 11
C        0.0626760520    1.0983041859    1.8975768627
C       -4.3973382597   -2.2465566850    3.3493308501
C        0.2963247105    0.7795658607    3.2598405634
C       -0.4394207278    0.0200284657    1.1139834570
C       -4.1100809389   -1.6289176950    4.6100440982
C       -3.2997750275   -1.9850598645    2.5725174983
C       -1.2058773502   -0.7419018253    2.9676653097
N       -0.3517665425   -0.2569625408    3.8778388910
N       -0.7060461888   -1.1307872874    1.7804185671
N       -2.9306307727   -1.0345580904    4.6225979652
N       -2.4262683586   -1.2606470215    3.3650788983
H        0.4219617181    2.0206578924    1.4558046522
H       -5.2828095782   -2.7985158608    3.0650721954
H        1.0191223624    1.3310422895    3.8561691193
H       -0.2916190146   -0.0303138886    0.0365723909
H       -4.7296531817   -1.5984995321    5.4987000567
H       -3.0351526231   -2.2433143646    1.5582957382
17   
Generated by ForceBalance from scan.xyz: Frame 2 of 11
C        0.2241580543    1.0919919139    1.8627932435
C       -4.4174688195   -2.3264385884    3.3982376689
C        0.3024473942    0.8146461259    3.2426525558
C       -0.3542313907    0.0659628232    1.0861747558
C       -4.1222780083   -1.7047276609    4.6516078241
C       -3.3575455451   -2.0021614946    2.5890103314
C       -1.3114801822   -0.6567042966    2.9238524016
N       -0.4825488385   -0.1193312339    3.8286293882
N       -0.8584071694   -1.0197543426    1.7114521776
N       -2.9725365639   -1.0501835442    4.6295940503
N       -2.4999305114   -1.2410492159    3.3579644311
H        0.7215456297    1.9460444222    1.4170529146
H       -5.2817574843   -2.9211575466    3.1358350509
H        1.0154593886    1.3248593696    3.8865498218
H       -0.1763479601   -0.0117676106    0.0150769671
H       -4.7117572199   -1.7114409590    5.5608452383
H       -3.1154073741   -2.2376732213    1.5637766784
17   
Generated by ForceBalance from scan.xyz: Frame 3 of 11
C        0.3420834289    1.0599154479    1.8461162092
C       -4.4219418522   -2.3733241310    3.4273586126
C        0.2946641108    0.8436092320    3.2319410449
C       -0.2973909016    0.0825711175    1.0687074009
C       -4.1146797727   -1.7587858272    4.6793096738
C       -3.3920357991   -2.0052167139    2.5960498142
C       -1.3745899159   -0.6033019498    2.8950653422
N       -0.5747745416   -0.0154082266    3.7920448739
N       -0.9816352732   -0.9183045446    1.6502849204
N       -2.9857762232   -1.0674409163    4.6356802102
N       -2.5414932054   -1.2267567961    3.3518832613
H        0.9458294852    1.8450220405    1.4044415578
H       -5.2731695449   -2.9920367999    3.1779984773
H        0.9762900669    1.3527604280    3.9106641372
H       -0.1059823736   -0.0109667647    0.0011394663
H       -4.6786059054   -1.7954822837    5.6038247350
H       -3.1707158958   -2.2194807987    1.5616281245
17   
Generated by ForceBalance from scan.xyz: Frame 4 of 11
C        0.4309652308    1.0070656466    1.8444138044
C       -4.4255408379   -2.4083086416    3.4473499936
C        0.2723608031    0.8685834441    3.2286510510
C       -0.2697689206    0.0851671434    1.0588327094
C       -4.1058383575   -1.8091843219    4.7024169707
C       -3.4223475551   -1.9995367926    2.6011939121
C       -1.4277858466   -0.5571166513    2.8807459872
N       -0.6628743734    0.0772534125    3.7733508180
N       -1.0971115744   -0.8147509241    1.6066586901
N       -2.9951145886   -1.0885473473    4.6470048626
N       -2.5770171379   -1.2124026583    3.3519601983
H        1.1266967862    1.7184656514    1.4127837316
H       -5.2664345557   -3.0435229491    3.2043750508
H        0.9180676480    1.3986789578    3.9268935301
H       -0.0743299636   -0.0167058903   -0.0073107813
H       -4.6469378794   -1.8770944848    5.6386811159
H       -3.2200509405   -2.1888863458    1.5582021056
17   
Generated by ForceBalance from scan.xyz: Frame 5 of 11
C        0.5245186231    0.9448094172    1.8473783863
C       -4.4077309308   -2.4369055096    3.4590524942
C        0.2642103554    0.9007963479    3.2199279756
C       -0.2331293507    0.0807825574    1.0534983936
C       -4.0749912173   -1.8534117291    4.7173914309
C       -3.4339390344   -1.9875764610    2.5985697181
C       -1.4616671290   -0.5077715734    2.8623313684
N       -0.7290930325    0.1746969543    3.7454373239
N       -1.1826371188   -0.7090977092    1.5662559203
N       -2.9839857952   -1.1034771133    4.6492927911
N       -2.5927267414   -1.1915180688    3.3435849087
H        1.3030647809    1.5740173487    1.4294607870
H       -5.2378269561   -3.0885573511    3.2225378660
H        0.8729383274    1.4614376302    3.9278773548
H       -0.0383342063   -0.0276239125   -0.0122588138
H       -4.5914237248   -1.9530713530    5.6646842969
H       -3.2522153293   -2.1519342969    1.5477133994
17   
Generated by ForceBalance from scan.xyz: Frame 6 of 11
C        0.5834874039    0.8941385498    1.8517497746
C       -4.3948465187   -2.4482953460    3.4605827524
C        0.2319475926    0.9589372365    3.2020087618
C       -0.2252714268    0.0914120829    1.0455564787
C       -4.0469755180   -1.8847532212    4.7237195835
C       -3.4547101154   -1.9531731720    2.5877162713
C       -1.5095348770   -0.4353435937    2.8401042834
N       -0.8133996971    0.2988115937    3.7107727378
N       -1.2760615242   -0.5796514898    1.5274201494
N       -2.9790833036   -1.1029165878    4.6465964597
N       -2.6191107552   -1.1488788065    3.3299593576
H        1.4345935923    1.4354413815    1.4525129225
H       -5.2128451872   -3.1167295016    3.2287829113
H        0.8054325987    1.5604703011    3.9059548588
H       -0.0301869231   -0.0212817474   -0.0197801335
H       -4.5356940047   -2.0215793007    5.6810207318
H       -3.2954226736   -2.0877734166    1.5290551740
17   
Generated by ForceBalance from scan.xyz: Frame 7 of 11
C        0.6381193834    0.8086747074    1.8761990802
C       -4.3729565405   -2.4692350016    3.4652892897
C        0.2127516864    0.9864570071    3.1952757994
C       -0.2199653796    0.0781009371    1.0515137893
C       -4.0124575139   -1.9220495526    4.7322913143
C       -3.4639132337   -1.9339240781    2.5834604076
C       -1.5458802456   -0.3819888411    2.8286576663
N       -0.8823083429    0.3964242499    3.6867619136
N       -1.3581690668   -0.4604203286    1.5028364064
N       -2.9666499408   -1.1117105782    4.6490459142
N       -2.6347275781   -1.1212720076    3.3240838366
H        1.5533004872    1.2544809400    1.5015201474
H       -5.1789415683   -3.1532962144    3.2370508045
H        0.7617152653    1.6263647917    3.8846425250
H       -0.0243671086   -0.0332057774   -0.0138401482
H       -4.4764807177   -2.0912459501    5.6966830586
H       -3.3243863777   -2.0424463320    1.5189858883
17   
Generated by ForceBalance from scan.xyz: Frame 8 of 11
C        0.6640446695    0.7189109738    1.9107958682
C       -4.3529777222   -2.4880128633    3.4650007983
C        0.1792370919    1.0165752483    3.1893498954
C       -0.2320864540    0.0580294069    1.0643020130
C       -3.9793787655   -1.9589329990    4.7365572482
C       -3.4770184873   -1.9109861496    2.5766461213
C       -1.5896952069   -0.3242592870    2.8193016635
N       -0.9625426676    0.5002349922    3.6632401600
N       -1.4427668898   -0.3334215475    1.4854921275
N       -2.9573609423   -1.1197329598    4.6500785449
N       -2.6546336082   -1.0910471001    3.3177560015
H        1.6323698870    1.0652426516    1.5661253194
H       -5.1461601803   -3.1875194933    3.2388008405
H        0.7110494198    1.6962826627    3.8531543344
H       -0.0302276433   -0.0545658694    0.0003621158
H       -4.4175186151   -2.1624965957    5.7064110940
H       -3.3579092591   -1.9914458773    1.5070957785
17   
Generated by ForceBalance from scan.xyz: Frame 9 of 11
C        0.6720820691    0.6171651437    1.9536107114
C       -4.3228327575   -2.5079941211    3.4601321582
C        0.1476797644    1.0379039972    3.1854852576
C       -0.2547876445    0.0239026499    1.0832991709
C       -3.9397118745   -1.9948358222    4.7365833313
C       -3.4796424273   -1.8904334759    2.5685404897
C       -1.6289257809   -0.2656438536    2.8137691497
N       -1.0395874362    0.6034025675    3.6428286018
N       -1.5210008990   -0.1995489478    1.4769338113
N       -2.9431352781   -1.1266963629    4.6501823641
N       -2.6667889626   -1.0615752168    3.3121594520
H        1.6827028961    0.8587424347    1.6433501881
H       -5.1012986868   -3.2239178220    3.2342612215
H        0.6766033891    1.7509597386    3.8150146218
H       -0.0437280122   -0.0956466631    0.0220484560
H       -4.3538084719   -2.2316951987    5.7094713405
H       -3.3785280059   -1.9441264308    1.4953166213
17   
Generated by ForceBalance from scan.xyz: Frame 10 of 11
C        0.6617106232    0.5054567627    2.0050434455
C       -4.2715397209   -2.5236038160    3.4461039141
C        0.1208457543    1.0551213424    3.1850404102
C       -0.2915889891   -0.0195483434    1.1072684442
C       -3.8858190548   -2.0228624173    4.7287049283
C       -3.4646001742   -1.8613516701    2.5551953601
C       -1.6653628135   -0.1859882738    2.8103936883
N       -1.1155154085    0.7241072962    3.6252082037
N       -1.5906435080   -0.0433353893    1.4758284611
N       -2.9217044934   -1.1203146205    4.6466798580
N       -2.6685705005   -1.0178938463    3.3041924648
H        1.7042877983    0.6311739194    1.7353896526
H       -5.0289099032   -3.2611684855    3.2182261265
H        0.6682134836    1.7865484847    3.7755572426
H       -0.0692837370   -0.1564464863    0.0504933285
H       -4.2766236989   -2.2949730096    5.7020877656
H       -3.3787980396   -1.8880458927    1.4794989439
17   
Generated by ForceBalance from scan.xyz: Frame 11 of 11
C        0.6100623765    0.3649695192    2.0752763725
C       -4.1805001151   -2.5383620545    3.4200677971
C        0.0825917130    1.0627558901    3.1918875373
C       -0.3664501564   -0.0792442981    1.1383147402
C       -3.8026487767   -2.0418565537    4.7100690394
C       -3.4272141632   -1.8168216478    2.5321449656
C       -1.7213784692   -0.0551745605    2.8021274991
N       -1.2135682076    0.8921575122    3.6006953703
N       -1.6617773959    0.1442326472    1.4727083595
N       -2.8927730003   -1.0873315473    4.6356126290
N       -2.6655429836   -0.9430069239    3.2886149862
H        1.6724170763    0.3481147767    1.8605601959
H       -4.8999668465   -3.3120946279    3.1893572616
H        0.6817388191    1.7793468885    3.7483749706
H       -0.1266656747   -0.2522340480    0.0905621400
H       -4.1638225780   -2.3567303045    5.6821360252
H       -3.3579227213   -1.8140371449    1.4548548853
