23   
Generated by ForceBalance from scan.xyz: Frame 1 of 13
C        3.2182427638   -0.6365335775   -2.8760183357
C        4.5487319734   -0.4867580658   -2.4748090875
C        2.1945879369   -0.0449964230   -2.1340524853
C        4.8451363780    0.2529955443   -1.3280745855
C        2.4597737560    0.7130578529   -0.9832301228
C        3.8053501512    0.8393983695   -0.6042739474
C       -0.0976668174    0.7598614577   -0.4274598300
C        1.3301865257    2.9255200712   -0.4289218032
C       -0.7884781857    1.6559099449   -1.1430054975
C        0.6163015585    3.3900445802   -1.4812273948
C        1.3346499484    1.3644947428   -0.1906988276
N        0.0560372513    2.2497118605   -2.1650908330
Cl       4.2415780366    1.7542263218    0.8448368485
H        2.9772535101   -1.2147978986   -3.7641890760
H        5.3543033065   -0.9447582563   -3.0425212911
H        1.1599987045   -0.1595826749   -2.4392098161
H        5.8701642711    0.3745433524   -0.9922054991
H       -0.5351740518    0.1183539180    0.3336598836
H        1.8660907571    3.5580037619    0.2697060332
H       -1.8684364717    1.6855565518   -1.2866845038
H        0.5128654471    4.4090894340   -1.8391934045
H        1.5518917440    1.2121488861    0.8710666496
H       -0.5424548659    2.5663708005   -2.9286319971
23   
Generated by ForceBalance from scan.xyz: Frame 2 of 13
C        3.1934833393   -0.6220419913   -2.8667486576
C        4.5273174979   -0.4901613883   -2.4711560199
C        2.1796979174   -0.0267597136   -2.1137862974
C        4.8371657288    0.2378992199   -1.3202779880
C        2.4595050505    0.7181404551   -0.9580751755
C        3.8082444213    0.8302910375   -0.5861930859
C       -0.0653191535    0.8075829147   -0.4058918667
C        1.3399516141    2.9174980125   -0.4237282167
C       -0.7968567668    1.5800732397   -1.2213220795
C        0.6283375889    3.3677394627   -1.4748417207
C        1.3466992929    1.3860476404   -0.1545485559
N       -0.0118260317    2.2971318983   -2.1915842965
Cl       4.2623708244    1.7358734792    0.8634599471
H        2.9417622543   -1.1894303915   -3.7589421749
H        5.3250818192   -0.9520831773   -3.0466624398
H        1.1429287139   -0.1310635272   -2.4149546761
H        5.8652850845    0.3464179283   -0.9894360407
H       -0.5132542652    0.1437706598    0.3280804582
H        1.8908241196    3.5727348536    0.2409442578
H       -1.8596100957    1.4564347168   -1.4205491712
H        0.5632483310    4.3896383427   -1.8339786880
H        1.5767684765    1.2365214135    0.9043375369
H       -0.6232891397    2.6778620019   -2.9113084884
23   
Generated by ForceBalance from scan.xyz: Frame 3 of 13
C        3.1940043511   -0.6029509044   -2.8595267356
C        4.5262154339   -0.5030330368   -2.4496324334
C        2.1836922989    0.0017662711   -2.1089882865
C        4.8390952457    0.2056851784   -1.2874051370
C        2.4669154918    0.7246128243   -0.9403933875
C        3.8142105374    0.8087398756   -0.5564833058
C       -0.0407085653    0.8535471813   -0.3974356500
C        1.3563108829    2.9225188438   -0.4532841069
C       -0.8075715163    1.5307244682   -1.2650959872
C        0.6180843347    3.3670384619   -1.4835538527
C        1.3597013834    1.4157297393   -0.1437685484
N       -0.1299395817    2.3758965556   -2.1927232018
Cl       4.2719234800    1.6966366451    0.9032708695
H        2.9404152766   -1.1532492053   -3.7618240993
H        5.3203399699   -0.9733596911   -3.0233545478
H        1.1484707105   -0.0798723253   -2.4226602658
H        5.8660615089    0.2916240894   -0.9463875659
H       -0.4723928894    0.1440205477    0.3016166710
H        1.9578911236    3.5912935249    0.1513047432
H       -1.8470592555    1.2935783360   -1.4773600581
H        0.5939029725    4.3897104431   -1.8461804089
H        1.5923448650    1.2829424022    0.9166253708
H       -0.7838350385    2.8079395136   -2.8394063466
23   
Generated by ForceBalance from scan.xyz: Frame 4 of 13
C        3.2158306004   -0.5907742559   -2.8466964582
C        4.5411361774   -0.5305950674   -2.4071556760
C        2.2072537408    0.0338205488   -2.1104030518
C        4.8488492373    0.1595995662   -1.2324876560
C        2.4841327629    0.7349885935   -0.9272805349
C        3.8249683354    0.7822314681   -0.5163549249
C       -0.0149946166    0.8894758442   -0.4005498302
C        1.3728930093    2.9387232649   -0.5113591500
C       -0.8276726909    1.5024694803   -1.2753935917
C        0.5754491153    3.3883916482   -1.4926998833
C        1.3757598522    1.4534619009   -0.1539743142
N       -0.2931157706    2.4780697121   -2.1497469226
Cl       4.2769484760    1.6530135792    0.9557703345
H        2.9670607197   -1.1246063413   -3.7601708657
H        5.3344644237   -1.0162661243   -2.9690318458
H        1.1768704653   -0.0160249930   -2.4474298717
H        5.8709332182    0.2170835081   -0.8712855860
H       -0.3982605840    0.1073559901    0.2469775212
H        2.0486396026    3.6092508077    0.0074480657
H       -1.8447577060    1.1776958756   -1.4762210364
H        0.5786613044    4.4110585810   -1.8567686957
H        1.6062791061    1.3500596144    0.9105547263
H       -1.0075962047    2.9493079162   -2.6939923435
23   
Generated by ForceBalance from scan.xyz: Frame 5 of 13
C        3.2551209449   -0.5972452862   -2.8244400145
C        4.5688936013   -0.5701417663   -2.3481990028
C        2.2430721973    0.0523677951   -2.1152242882
C        4.8614118675    0.1128756766   -1.1654552443
C        2.5038629739    0.7436980267   -0.9229587728
C        3.8336944959    0.7592415427   -0.4760069143
C        0.0075254261    0.9098023689   -0.4255937085
C        1.3863182986    2.9550513493   -0.5888825751
C       -0.8568359158    1.4939331991   -1.2716025042
C        0.5129543700    3.4259427360   -1.4929156976
C        1.3877672381    1.4884272659   -0.1832936781
N       -0.4759513507    2.5951949288   -2.0578611098
Cl       4.2680658749    1.6244303005    1.0048589891
H        3.0185796620   -1.1239101084   -3.7452966052
H        5.3653603858   -1.0745934684   -2.8886769481
H        1.2211775930    0.0300640959   -2.4816016670
H        5.8749615305    0.1470720945   -0.7781452163
H       -0.3076368426    0.0413514519    0.1442204602
H        2.1441182309    3.6117421095   -0.1754650600
H       -1.8511321668    1.0994780804   -1.4596465037
H        0.5345873639    4.4489353773   -1.8559393483
H        1.6126691777    1.4180092380    0.8859120594
H       -1.2485274871    3.0958826901   -2.4796468977
23   
Generated by ForceBalance from scan.xyz: Frame 6 of 13
C        3.3196621447   -0.6312656152   -2.8113052328
C        4.6221155145   -0.6228308883   -2.3033823253
C        2.3029777113    0.0398309729   -2.1300164364
C        4.8977504786    0.0627451889   -1.1183488497
C        2.5458698379    0.7316591600   -0.9342322961
C        3.8643987054    0.7290171062   -0.4559818724
C        0.0507099841    0.8974534521   -0.4707116994
C        1.4226655299    2.9483315423   -0.6822726475
C       -0.8717940986    1.4870866277   -1.2505916161
C        0.4638360920    3.4563867439   -1.4736921101
C        1.4202323635    1.4976551973   -0.2293839311
N       -0.6365257086    2.7015240933   -1.9019398529
Cl       4.2793682331    1.5993547933    1.0275538031
H        3.0969496168   -1.1586796355   -3.7351838633
H        5.4228517573   -1.1429623907   -2.8222611758
H        1.2897412524    0.0358670879   -2.5216289963
H        5.9026743394    0.0844169450   -0.7083106060
H       -0.1860711482   -0.0555348031   -0.0072796022
H        2.2611447931    3.5745132799   -0.3956814441
H       -1.8457992427    1.0419480207   -1.4312053566
H        0.4949425978    4.4794324299   -1.8362130109
H        1.6387808717    1.4594139304    0.8438109437
H       -1.4512490097    3.2202374383   -2.1999527704
23   
Generated by ForceBalance from scan.xyz: Frame 7 of 13
C        3.6562080485    0.0443606274   -3.1856915731
C        4.5220842655   -0.7159380680   -2.3938418103
C        2.7211338054    0.8867133445   -2.5822588584
C        4.4418330705   -0.6302886380   -1.0022962325
C        2.6217495545    1.0029371717   -1.1880847896
C        3.4974443650    0.2197439349   -0.4222435577
C        0.3156563242    1.0796732131   -0.2388816317
C        1.1821506781    3.0818655323   -1.4296489359
C       -0.8728641792    1.2974610823   -0.8297264215
C       -0.0470564085    3.2490149197   -1.9508306694
C        1.5563483404    1.9032817082   -0.5522329244
N       -1.0902680881    2.3701452060   -1.6900794647
Cl       3.4250386583    0.2676087883    1.3446751326
H        3.7089638309   -0.0202545301   -4.2694072593
H        5.2555855700   -1.3751577440   -2.8503398683
H        2.0434412483    1.4777379540   -3.1923822701
H        5.1015689481   -1.2153190850   -0.3690432719
H        0.4184561321    0.2405847508    0.4412729796
H        1.9474909593    3.8178256471   -1.6570565286
H       -1.7383498423    0.6727322900   -0.6314119485
H       -0.2952930164    4.0991290282   -2.5792076820
H        1.9859630321    2.2792135735    0.3844633362
H       -2.0028116838    2.5288530349   -2.0850830331
23   
Generated by ForceBalance from scan.xyz: Frame 8 of 13
C        3.7362833079    0.0067825992   -3.1642526708
C        4.6234906815   -0.6981346911   -2.3451465988
C        2.7623965460    0.8252716826   -2.5904127827
C        4.5234408001   -0.5818532736   -0.9573486472
C        2.6441766473    0.9734640871   -1.2004603452
C        3.5403338433    0.2437053393   -0.4062453940
C        0.2973055295    1.0147624731   -0.3550753222
C        1.1948851109    3.0298063161   -1.4944886921
C       -0.9238845626    1.3826514618   -0.7738783034
C       -0.0656506300    3.3418575320   -1.8382308951
C        1.5430836193    1.8523289747   -0.6045030758
N       -1.1742700049    2.6199177501   -1.3830196791
Cl       3.4453687232    0.3277682808    1.3571245454
H        3.8023418487   -0.0827371044   -4.2453870897
H        5.3878070846   -1.3383187273   -2.7775140004
H        2.0650574937    1.3692032751   -3.2221031841
H        5.1980975323   -1.1255116943   -0.3033835771
H        0.4159400172    0.0661083099    0.1583527617
H        2.0035278032    3.6654517388   -1.8432273367
H       -1.8007232844    0.7658610813   -0.6004107172
H       -0.2960033043    4.2071202053   -2.4529704660
H        1.9248891111    2.2280731250    0.3539219492
H       -2.0145128562    2.6844517320   -1.9421897329
23   
Generated by ForceBalance from scan.xyz: Frame 9 of 13
C        3.7152292813   -0.0245353445   -3.1332958639
C        4.6019358418   -0.6798914251   -2.2735681651
C        2.7064649977    0.7827412826   -2.6059824189
C        4.4654648242   -0.5274617521   -0.8925818486
C        2.5519280361    0.9685415186   -1.2236476642
C        3.4470698579    0.2852134276   -0.3878801422
C        0.1703981109    0.9740090019   -0.4773406097
C        1.0730847901    2.9921051325   -1.5969996117
C       -1.0538902915    1.4352043419   -0.7724485571
C       -0.1904075474    3.4108969745   -1.7692985581
C        1.4162171166    1.8298936427   -0.6810118939
N       -1.2722706589    2.7827946630   -1.1231308476
Cl       3.3056841565    0.4126930824    1.3686863220
H        3.8082817071   -0.1440409316   -4.2094857853
H        5.3937003807   -1.3102420562   -2.6693817182
H        2.0080043654    1.2843310049   -3.2705001832
H        5.1385892820   -1.0336025025   -0.2077034013
H        0.2946590359   -0.0562097472   -0.1609128936
H        1.8815879807    3.5295300122   -2.0828865940
H       -1.9482276107    0.8321630858   -0.6465748434
H       -0.4398030899    4.2817157469   -2.3680726314
H        1.7463931210    2.2272701466    0.2881393795
H       -2.1700924447    2.9564240768   -1.5594608166
23   
Generated by ForceBalance from scan.xyz: Frame 10 of 13
C        3.7634845986   -0.0759679992   -3.1172009507
C        4.6745923942   -0.6651609948   -2.2351662453
C        2.7197354816    0.7032224210   -2.6172890793
C        4.5261688716   -0.4756940014   -0.8603588694
C        2.5512506790    0.9251473324   -1.2409957109
C        3.4714032685    0.3068294666   -0.3820767374
C        0.1294264387    0.8734220799   -0.6065111120
C        1.0479690125    2.9338935140   -1.6410332924
C       -1.0741583738    1.4307639859   -0.7948007343
C       -0.1929903598    3.4458060827   -1.6485894108
C        1.3782681353    1.7494440646   -0.7364930278
N       -1.1924147751    2.8423256785   -0.8451723520
Cl       3.3209215860    0.4804638282    1.3687879452
H        3.8649677612   -0.2248081800   -4.1889210410
H        5.4944682124   -1.2724675604   -2.6091095110
H        2.0035255224    1.1524845445   -3.3000718058
H        5.2182190061   -0.9303837241   -0.1585258502
H        0.2401118253   -0.2026059715   -0.5271723029
H        1.8347359297    3.3901956179   -2.2326030124
H       -2.0025998701    0.8690496967   -0.7484509728
H       -0.4753284671    4.3381521830   -2.1983007221
H        1.6412625160    2.1406383206    0.2550456289
H       -2.1270508438    3.1487544840   -1.0930253754
23   
Generated by ForceBalance from scan.xyz: Frame 11 of 13
C        3.7290876914   -0.1649463812   -3.0896888268
C        4.6940585723   -0.6396776138   -2.1953113007
C        2.6562376230    0.5876242134   -2.6128268630
C        4.5713182532   -0.3619927292   -0.8334951884
C        2.5088172771    0.8927315158   -1.2488148143
C        3.4858172773    0.3921839599   -0.3767005636
C        0.0369035498    0.8156298712   -0.7653846844
C        1.0342751871    2.9252287593   -1.6582233850
C       -1.1169585377    1.4809513020   -0.9042110636
C       -0.1680455434    3.5153364902   -1.5498783895
C        1.3048194472    1.6884247811   -0.7874969539
N       -1.0828569007    2.8858763582   -0.6525162840
Cl       3.3808308889    0.6863321865    1.3606772546
H        3.8125794604   -0.3809219250   -4.1514645488
H        5.5377197695   -1.2251997774   -2.5505608756
H        1.9008247394    0.9531542262   -3.3037857552
H        5.3076150993   -0.7256731680   -0.1237235723
H        0.1116383074   -0.2568631667   -0.9104469065
H        1.8091397441    3.3107963715   -2.3117941229
H       -2.0915257525    1.0050503712   -0.9712754164
H       -0.4662699993    4.4367414406   -2.0393324111
H        1.4837623484    2.0488420605    0.2334744852
H       -2.0076676554    3.3012437265   -0.7137491433
23   
Generated by ForceBalance from scan.xyz: Frame 12 of 13
C        3.7561181319   -0.1961182403   -3.0756522534
C        4.7238711610   -0.6304773637   -2.1639512874
C        2.6659523391    0.5476882888   -2.6249948595
C        4.5862757904   -0.3210376257   -0.8104695382
C        2.5026208579    0.8838274566   -1.2697551684
C        3.4836104029    0.4234963949   -0.3796750781
C        0.0127063759    0.7771225288   -0.8242585150
C        1.0179034720    2.9162198119   -1.7159351058
C       -1.0984985949    1.5074162534   -0.9793447094
C       -0.1646433586    3.5334201564   -1.5260199735
C        1.2830225725    1.6666901958   -0.8382174740
N       -0.9540198540    2.8687958211   -0.5223679737
Cl       3.3622716990    0.7609644372    1.3479754932
H        3.8509691827   -0.4366305839   -4.1311521426
H        5.5807829449   -1.2085367980   -2.4991187169
H        1.9096954499    0.8813709005   -3.3310777626
H        5.3245282259   -0.6524905607   -0.0870745249
H        0.0771398776   -0.2795788938   -1.0646844280
H        1.7608047169    3.2540523725   -2.4301662341
H       -2.1052426342    1.1169666870   -1.1079654921
H       -0.5112861554    4.4508170461   -1.9899080466
H        1.4253826263    2.0445151707    0.1823671103
H       -1.8714104412    3.3053585063   -0.4537695103
23   
Generated by ForceBalance from scan.xyz: Frame 13 of 13
C        3.7214958006   -0.2035739633   -3.0693609739
C        4.6966553497   -0.6320988679   -2.1629124018
C        2.6346267593    0.5427155808   -2.6146583446
C        4.5695195542   -0.3148568912   -0.8101159951
C        2.4815461298    0.8882293467   -1.2602912982
C        3.4699262349    0.4318358540   -0.3757332334
C       -0.0101347926    0.7409903285   -0.7807374057
C        0.9918898504    2.9273140077   -1.7233865054
C       -1.0582477995    1.5233629388   -1.0597716758
C       -0.1942651366    3.5512712969   -1.5184348457
C        1.2657035724    1.6698457788   -0.8213606147
N       -0.8753385579    2.8397348596   -0.4638940581
Cl       3.3602482585    0.7781357017    1.3505286081
H        3.8079254704   -0.4505924957   -4.1240857034
H        5.5511666227   -1.2117465264   -2.5014197795
H        1.8730485244    0.8714955951   -3.3171864007
H        5.3134455662   -0.6417870562   -0.0904581302
H        0.0747694768   -0.3095026519   -1.0450397956
H        1.7300115845    3.2389148146   -2.4549501119
H       -2.0725950009    1.2067405332   -1.2982185938
H       -0.5800774032    4.4555010351   -1.9767483248
H        1.4174487390    2.0689444416    0.1883599076
H       -1.7971201659    3.2500630235   -0.3100801110
