23   
Generated by ForceBalance from scan.xyz: Frame 1 of 7
C        1.8158248583   -1.0979858594    0.0074955805
C        2.9615029853   -1.4504560168    2.1182327124
C        0.7566899359   -0.4995177669    0.6898650251
C        1.8952712914   -0.8588645635    2.7903495590
C        2.9315934197   -1.5685669526    0.7178661562
C        0.7789066226   -0.3710910282    2.0880074557
C        4.0307964392   -2.2057393685    0.0003893473
C       -1.4798322302   -0.7524521542    3.2898703528
C       -0.3904325957    0.2309606246    2.8276060064
N        4.1948990689   -2.1756591274   -1.3796942620
N        5.2099070801   -2.5798493726    0.5502623169
N        4.9907773345   -3.2004212890   -1.5712706767
N        5.9050071792   -3.0199469866   -0.5845654168
O       -2.4176105943   -0.3982398879    3.9648897034
O       -1.3540724483   -2.0463188281    2.8985766644
H        1.7924521579   -1.1995292053   -1.0729104263
H        3.8240421169   -1.8166144697    2.6664524431
H       -0.0997680841   -0.1295710469    0.1308192220
H        1.9267415746   -0.7696997419    3.8737935815
H       -0.9040177393    0.9736262640    2.2096200086
H       -0.0611526625    0.7557711629    3.7283683493
H        6.5780232721   -3.7701243941   -0.4202602711
H       -0.5402347567   -2.1517968061    2.3715590558
23   
Generated by ForceBalance from scan.xyz: Frame 2 of 7
C        1.8163694502   -1.1022420195    0.0054297741
C        2.9642559123   -1.4584130556    2.1117642115
C        0.7595155876   -0.5026432979    0.6903242608
C        1.9003139301   -0.8640205096    2.7863515738
C        2.9315048038   -1.5787459950    0.7123927197
C        0.7829328446   -0.3740179432    2.0884548113
C        4.0334774139   -2.2162319906   -0.0084808552
C       -1.4754597994   -0.7528359557    3.2911180622
C       -0.3844711786    0.2292860651    2.8304434693
N        4.1460698592   -2.2360398001   -1.3840496268
N        5.1805054557   -2.6313396335    0.5554068698
N        5.0793171611   -3.1254020777   -1.6216822103
N        5.8692675806   -3.0498784336   -0.5353591844
O       -2.4136757452   -0.3978840693    3.9654356977
O       -1.3504131682   -2.0466779171    2.8995133500
H        1.7896887851   -1.2013289734   -1.0750673994
H        3.8256129735   -1.8272603097    2.6600173756
H       -0.0968765869   -0.1308607465    0.1323474958
H        1.9349887981   -0.7758459740    3.8697951043
H       -0.8970275440    0.9745967852    2.2147529885
H       -0.0534506500    0.7514677580    3.7321439426
H        6.6252540128   -3.7216499817   -0.4196550514
H       -0.5359399561   -2.1517701938    2.3731971973
23   
Generated by ForceBalance from scan.xyz: Frame 3 of 7
C        1.8114278948   -1.0975128810    0.0074732546
C        2.9603513057   -1.4518872871    2.1124637094
C        0.7540885970   -0.4989351430    0.6924763231
C        1.8975685281   -0.8557429166    2.7879596845
C        2.9256955886   -1.5761343637    0.7139563531
C        0.7792970441   -0.3681149737    2.0904201112
C        4.0323029532   -2.2079346751   -0.0082584262
C       -1.4773488925   -0.7444610206    3.2966899891
C       -0.3872425421    0.2368067922    2.8325163562
N        4.1139883183   -2.2881543523   -1.3739831774
N        5.1478733273   -2.6760700498    0.5679570379
N        5.1580440299   -3.0307685874   -1.6396981312
N        5.8459551271   -3.0903944473   -0.4982397039
O       -2.4141342718   -0.3890588681    3.9729101006
O       -1.3532270880   -2.0385590348    2.9057176434
H        1.7845069992   -1.1951246905   -1.0731426715
H        3.8216809926   -1.8205103343    2.6608290167
H       -0.1028543502   -0.1280764236    0.1346631426
H        1.9340398885   -0.7653778686    3.8711959310
H       -0.9006887662    0.9805556357    2.2156230666
H       -0.0553474109    0.7613522022    3.7325195154
H        6.6624624056   -3.6849702314   -0.3948192719
H       -0.5393289009   -2.1437859500    2.3784316045
23   
Generated by ForceBalance from scan.xyz: Frame 4 of 7
C        1.8125752405   -1.1095767725   -0.0036732927
C        2.9630725032   -1.4771472231    2.0975617517
C        0.7587476671   -0.5094625426    0.6852981376
C        1.9051197622   -0.8765646875    2.7770417152
C        2.9246606666   -1.5985955301    0.6990552738
C        0.7873845197   -0.3823835066    2.0835650306
C        4.0317929747   -2.2266213861   -0.0277836340
C       -1.4673595971   -0.7511521303    3.2956538499
C       -0.3746042501    0.2262472027    2.8297458659
N        4.0650615390   -2.3745666598   -1.3877108385
N        5.1315962079   -2.7249542146    0.5505150200
N        5.1953531145   -2.9719705985   -1.6772135049
N        5.8038800681   -3.1659451587   -0.5097162248
O       -2.4043712102   -0.3915576630    3.9694008262
O       -1.3449791924   -2.0468600598    2.9097350335
H        1.7838993294   -1.2014272468   -1.0847088085
H        3.8226011414   -1.8530063477    2.6438743602
H       -0.0975482289   -0.1330702404    0.1302050380
H        1.9447063982   -0.7892406027    3.8604479069
H       -0.8867025070    0.9731223023    2.2155621107
H       -0.0381031518    0.7481058224    3.7297120144
H        6.7104216536   -3.6161572978   -0.4396393626
H       -0.5310522075   -2.1550107679    2.3830598501
23   
Generated by ForceBalance from scan.xyz: Frame 5 of 7
C        1.8163017579   -1.1212869304    0.0021939149
C        2.9579936264   -1.4939882124    2.1083336681
C        0.7639512074   -0.5140360448    0.6872239927
C        1.9029021719   -0.8837685750    2.7833091236
C        2.9214545260   -1.6188624959    0.7099221034
C        0.7902486690   -0.3841738076    2.0852638423
C        4.0292553064   -2.2468602262   -0.0137679420
C       -1.4720744107   -0.7334688924    3.2891559109
C       -0.3693534490    0.2345290874    2.8268281479
N        4.0260320576   -2.4938446690   -1.3619906825
N        5.1233843440   -2.7590782252    0.5658297570
N        5.2226105085   -2.9302099394   -1.6614361297
N        5.7826940171   -3.2487392132   -0.4931789673
O       -2.4054209492   -0.3665220240    3.9639902825
O       -1.3632864147   -2.0289070527    2.8983821231
H        1.7915689298   -1.2129116524   -1.0790040423
H        3.8128276762   -1.8765842047    2.6572972947
H       -0.0880509146   -0.1322924878    0.1291810382
H        1.9397046489   -0.7944330780    3.8666229527
H       -0.8730105601    0.9850768076    2.2100993848
H       -0.0318837662    0.7541882093    3.7275928987
H        6.7560982966   -3.5290975000   -0.4241130819
H       -0.5501032939   -2.1444195654    2.3721398064
23   
Generated by ForceBalance from scan.xyz: Frame 6 of 7
C        1.8204622692   -1.1201405478    0.0013332191
C        2.9615558872   -1.4898332257    2.1093858572
C        0.7663039390   -0.5151372621    0.6855979111
C        1.9059959576   -0.8794592221    2.7828366162
C        2.9242649639   -1.6187132786    0.7108708437
C        0.7922112436   -0.3834249692    2.0834454843
C        4.0344756693   -2.2394790167   -0.0119683062
C       -1.4697942346   -0.7351740436    3.2871519441
C       -0.3685854650    0.2342895818    2.8237948472
N        4.0005717064   -2.5527668769   -1.3563768871
N        5.1060656138   -2.8058657959    0.5675164346
N        5.2485201839   -2.8095932817   -1.6627680947
N        5.7607901904   -3.2929429767   -0.5162136558
O       -2.4046880390   -0.3683042974    3.9597479022
O       -1.3577770260   -2.0314318567    2.9001881618
H        1.7980920259   -1.2109591639   -1.0799893911
H        3.8165425411   -1.8716757335    2.6586969149
H       -0.0861248109   -0.1351378990    0.1270645895
H        1.9422820214   -0.7877965052    3.8659508027
H       -0.8734783896    0.9830168644    2.2059120601
H       -0.0322848242    0.7556525267    3.7240008134
H        6.7604243874   -3.4743629819   -0.4536185520
H       -0.5439784405   -2.1473137932    2.3750827185
23   
Generated by ForceBalance from scan.xyz: Frame 7 of 7
C        1.8199770615   -1.1288712962    0.0038395072
C        2.9579090586   -1.4959031611    2.1163578118
C        0.7659622758   -0.5200126863    0.6848896500
C        1.9037201684   -0.8799659726    2.7856409050
C        2.9197566193   -1.6307425037    0.7177504040
C        0.7916423572   -0.3840115778    2.0822946989
C        4.0277603179   -2.2506687660   -0.0012545622
C       -1.4714376785   -0.7261252598    3.2868896469
C       -0.3680815351    0.2392535320    2.8193373670
N        3.9891303916   -2.6238416082   -1.3397432083
N        5.0783061155   -2.8805611986    0.5750331663
N        5.2664577443   -2.6902567402   -1.6300962040
N        5.7527474303   -3.3619270778   -0.5557302711
O       -2.4050862447   -0.3540576619    3.9580912766
O       -1.3629543350   -2.0242037169    2.9053028798
H        1.8008977700   -1.2225729798   -1.0773556771
H        3.8113974854   -1.8798581910    2.6665614006
H       -0.0850384158   -0.1394281328    0.1246700212
H        1.9383365041   -0.7840036555    3.8683942987
H       -0.8713900508    0.9858608892    2.1976629527
H       -0.0310800575    0.7640204661    3.7172526319
H        6.7670623149   -3.4321106961   -0.4611781206
H       -0.5498063780   -2.1456610147    2.3806484328
