49

C     -5.93337    0.36839    1.10130
C     -5.80569   -2.51903   -0.45422
C     -7.07117    1.37671    1.19127
C     -7.91328    1.09833   -0.06320
C     -6.92346    0.44168   -1.05604
C     -8.84941   -7.79819    1.75560
C     -8.85662   -5.68782    0.42141
C     -5.89925   -7.17850    3.62601
C     -4.59682   -7.83413    1.54564
C     -5.02912   -1.19551   -0.55902
C     -5.61323   -4.96883   -0.25081
C     -6.04811   -5.26459    1.19400
C     -8.16467   -6.43787    1.57086
C     -5.98545   -7.54463    2.13123
C     -6.38038    1.44300   -2.07578
N     -5.85868   -0.06677   -0.20735
N     -5.03008   -3.63346   -0.39220
N     -6.71466   -6.56729    1.29792
O     -5.19583   -0.01050    2.00138
O     -7.03782   -2.55089   -0.47535
F     -7.37178    1.88737   -2.88622
F     -5.81683    2.52786   -1.49143
F     -5.43222    0.88406   -2.87331
H     -7.61323    1.23641    2.12753
H     -6.64414    2.38442    1.19499
H     -8.69398    0.36825    0.16011
H     -8.38812    1.98761   -0.48051
H     -7.39087   -0.36838   -1.61974
H     -8.63740   -8.45610    0.90522
H     -8.55007   -8.30950    2.67437
H     -9.93263   -7.65115    1.80611
H     -8.76087   -6.25916   -0.50896
H     -8.44877   -4.68851    0.25331
H     -9.92270   -5.57250    0.64498
H     -5.31206   -6.26811    3.78854
H     -6.89324   -7.01465    4.05405
H     -5.42052   -7.98519    4.19228
H     -3.92167   -6.97508    1.62463
H     -4.67951   -8.11215    0.49046
H     -4.12758   -8.66302    2.08597
H     -4.17516   -1.19678    0.12343
H     -4.65060   -1.08276   -1.57865
H     -6.47374   -5.03455   -0.91665
H     -4.87668   -5.70491   -0.58238
H     -5.16505   -5.21880    1.83966
H     -6.70206   -4.45460    1.53360
H     -8.32651   -5.85235    2.49577
H     -6.54000   -8.48184    2.05287
H     -4.03814   -3.51720   -0.22936
