38

C      1.96280    2.09016   -0.55724
C      3.58687    2.32942    1.72261
C      1.65304    1.30795    0.57957
C      3.06289    2.93703   -0.56699
C      3.89121    3.04749    0.56411
C      2.48335    1.47585    1.70410
C      0.09079   -0.46006   -0.34523
C      0.48097    0.41295    0.60369
C      4.67745    5.37421    1.17316
C      3.54119    3.88523   -1.64778
C      0.83612   -0.76532   -1.62331
C     -1.21238   -1.21784   -0.23102
C      4.98214    4.23359   -1.19572
C     -0.04348   -0.46717   -2.85354
C     -2.11435   -0.92537   -1.44853
C     -1.38395   -1.21377   -2.76924
C      4.98846    4.04766    0.33942
O      4.80649    5.22512    2.41498
O      4.34701    6.38202    0.49783
Cl     2.14099    0.53835    3.17786
H      1.30075    2.03780   -1.41867
H      4.18626    2.45638    2.61754
H     -0.13288    0.47149    1.50269
H      3.49017    3.45015   -2.65368
H      2.92241    4.79039   -1.64065
H      1.78145   -0.22348   -1.67647
H      1.07955   -1.83983   -1.63051
H     -1.01029   -2.30025   -0.20118
H     -1.73095   -0.95947    0.69845
H      5.69031    3.53567   -1.66427
H      5.25661    5.25710   -1.45707
H     -0.23020    0.61344   -2.90521
H      0.48676   -0.74395   -3.77354
H     -3.03596   -1.51885   -1.38829
H     -2.41023    0.13158   -1.42080
H     -1.19527   -2.29461   -2.84476
H     -2.02263   -0.94692   -3.62086
H      5.94877    3.68027    0.71503
