37

C     -0.61170    1.80524    0.37832
C      0.31510    0.88139   -0.10671
C     -1.90936    1.35757    0.64654
C     -1.10938    0.20406   -3.29579
C     -0.08974   -0.43804   -0.32007
C     -0.56943   -1.04670   -3.27366
C     -1.41502   -0.79557    0.01088
C     -1.37388   -2.19565   -3.67190
C     -3.24248   -0.59530   -4.09451
C      0.72793   -2.75221   -0.33272
C     -0.60021   -3.46583   -0.56238
C     -2.96814    1.79012   -3.63580
C     -3.53000   -2.99249   -4.50455
N     -2.30279    0.08970    0.48136
N     -2.38755    0.44145   -3.67802
N     -2.67744   -1.86309   -4.10509
N      0.80594   -1.39018   -0.88584
O     -1.01819   -3.36815   -3.66310
O     -4.39428   -0.35308   -4.42451
O      1.75672   -2.38916   -3.02869
O      1.65695    0.14277   -2.71738
S     -2.07822   -2.42873   -0.17957
S      1.06933   -1.19102   -2.57152
H     -0.33703    2.84117    0.55209
H      1.33366    1.16187   -0.35403
H     -2.66858    2.04488    1.01627
H     -0.52238    1.06565   -2.99986
H      0.93392   -2.64341    0.73566
H      1.53269   -3.34040   -0.77628
H     -0.68056   -3.79869   -1.59613
H     -0.66105   -4.33794    0.09471
H     -3.32134    2.07525   -4.62797
H     -2.19912    2.48481   -3.29836
H     -3.81174    1.80641   -2.94374
H     -3.73034   -3.62384   -3.63565
H     -3.00775   -3.58615   -5.25557
H     -4.45927   -2.59254   -4.90199
