36

C     -4.37104    7.40425   -6.10245
C     -0.18965    2.23322    0.00248
C     -0.96557    1.10830    0.37644
C     -0.77021    3.28632   -0.67650
C     -2.30996    1.05685    0.06928
C     -4.16730    4.17582   -1.95809
C     -3.83870    7.24156   -4.80157
C     -2.15174    3.25994   -1.00980
C     -2.82118    4.31020   -1.71197
C     -2.93548    2.12612   -0.62468
C     -4.86872    3.00840   -1.52832
C     -3.97876    8.08808   -3.65339
C     -3.07024    6.15527   -4.36239
C     -6.34738    2.89044   -1.80140
C     -4.71048    9.38961   -3.57014
C     -2.04672    5.53484   -2.16522
N     -4.80483    7.51157   -7.18239
N     -4.27375    2.01780   -0.89177
N     -3.35885    7.56544   -2.60440
N     -2.78896    6.39519   -3.06004
N     -2.57834    5.05243   -5.04107
H      0.86710    2.26627    0.25352
H     -0.49676    0.28538    0.90947
H     -0.16021    4.14268   -0.94794
H     -2.92759    0.20822    0.34782
H     -4.71595    4.95994   -2.47157
H     -6.55992    2.99252   -2.87161
H     -6.71446    1.92325   -1.45519
H     -6.90022    3.68454   -1.28632
H     -5.75800    9.26968   -3.86519
H     -4.67151    9.77197   -2.54829
H     -4.26541   10.13068   -4.24231
H     -1.76378    6.14835   -1.30633
H     -1.12577    5.23042   -2.67384
H     -2.69930    4.17151   -4.54771
H     -2.93450    4.98980   -5.98996
