27

C      0.37897    1.18997    2.07670
C      0.19983    1.53339    3.43043
C      1.92868   -2.29154    0.41706
C      2.57998   -2.86790    1.54561
C     -1.98920    0.60031    1.83636
C     -0.69221    0.74139    1.29633
C     -1.06845    1.36969    3.95392
C     -2.13223    0.90936    3.17403
C      0.59625   -2.05038    0.64915
C      1.71387   -3.03958    2.59903
C     -2.85761    1.13746    5.28017
N     -0.48539    0.39301   -0.07637
O     -1.86250   -1.74646   -0.16403
O      0.06561   -1.33562   -1.81654
O     -1.51324    1.64640    5.22772
O     -3.28140    0.88230    3.93046
S      0.09389   -2.51887    2.24709
S     -0.52251   -1.26416   -0.48085
Cl     2.09782   -3.70887    4.14545
H      1.36980    1.26158    1.63599
H      1.02233    1.89480    4.03877
H      2.40560   -2.07793   -0.53346
H      3.62549   -3.15231    1.57977
H     -2.81349    0.25268    1.22509
H     -2.86765    0.19747    5.84771
H     -3.51133    1.88824    5.72859
H      0.35597    0.80097   -0.48091
