30

C     -1.19683   -4.19992    0.69280
C     -0.75865   -2.90223    0.43752
C     -2.45520   -4.45720    1.25168
C     -2.87034   -2.05509    1.31127
C      3.04958    3.24276   -1.54074
C      1.56359    1.42905   -0.79749
C     -1.60304   -1.82093    0.74965
C      1.82180    2.77651   -0.98123
C     -3.27222   -3.36683    1.55143
C      3.99244    2.33270   -1.90363
C      2.58288    0.46307   -1.19007
C      0.29606    1.00529   -0.22310
C      5.32697    2.64201   -2.50190
N     -0.00789   -0.23415   -0.02455
N     -1.20902   -0.50556    0.51336
O      2.55198   -0.74112   -1.11185
O      3.78243    1.01404   -1.74254
O      0.86413    3.67608   -0.61181
Cl    -4.86214   -3.64548    2.25517
H     -0.54474   -5.03533    0.45173
H      0.21526   -2.70461    0.00494
H     -2.79127   -5.46950    1.44825
H     -3.53212   -1.22892    1.55711
H      3.23880    4.30261   -1.67913
H     -0.40094    1.80970    0.03725
H      6.12571    2.24563   -1.86632
H      5.46330    3.71904   -2.61699
H      5.42075    2.16229   -3.48179
H     -1.85108    0.25134    0.74877
H      1.17613    4.57655   -0.79474
