20

C      1.94600   -0.85237   -0.06861
C      0.97087   -0.19479    0.67917
C      2.86319   -1.70281    0.55730
C     -0.80097    3.62645    1.67692
C     -1.86189    3.71748    2.54922
C      0.87245   -0.39109    2.06839
C      2.77982   -1.88675    1.93142
C      1.79284   -1.25127    2.68471
C     -0.67614    1.60147    2.55305
C     -0.22435    0.22120    2.88002
N     -0.13891    2.42908    1.68721
O     -0.76403   -0.37843    3.80347
F      3.66081   -2.69087    2.56231
F      1.78014   -1.45766    4.00922
S     -2.04974    2.25063    3.43027
H      2.00018   -0.70012   -1.14212
H      0.27324    0.47382    0.19112
H      3.64065   -2.21950    0.00262
H     -0.47013    4.41660    1.01162
H     -2.52018    4.56194    2.70951
