35

C      7.58982   -2.92284    4.78655
C      8.62156    0.18050   -0.98683
C     -0.02836   -1.82542    2.29322
C      9.71817   -0.15224   -0.18279
C      7.32563   -0.12503   -0.55450
C     -0.09956   -1.45885    0.94600
C      1.21193   -2.10269    2.86038
C      9.51214   -0.78625    1.03893
C      7.11316   -0.75967    0.66724
C      1.06951   -1.37884    0.18808
C      2.39468   -2.01938    2.10007
C      8.20779   -1.10787    1.48836
C      2.33231   -1.65236    0.73573
C      3.65654   -2.34506    2.78959
C      5.69852   -2.40818    3.33975
C      8.13360   -1.78022    2.77531
C      7.14150   -2.32175    3.55334
C      3.54560   -1.54071   -0.15877
N      7.98966   -3.39572    5.77341
N      4.91525   -1.90616    2.41834
N      3.66505   -3.08732    3.88329
O      5.01061   -3.12683    4.25687
H      8.77647    0.67636   -1.94154
H     -0.92932   -1.89095    2.89678
H     10.72760    0.08296   -0.50833
H      6.47248    0.13575   -1.17539
H     -1.05946   -1.23750    0.48659
H      1.28266   -2.38358    3.90618
H     10.36766   -1.04312    1.65903
H      6.11015   -0.98581    0.99780
H      1.00570   -1.10049   -0.86112
H      9.11397   -1.89686    3.23202
H      4.11565   -0.63537    0.07110
H      4.22785   -2.38554   -0.04231
H      3.23708   -1.48802   -1.20623
