24

C      0.44762    2.37747    1.73904
C     -1.04900    1.95251    4.12137
C     -0.42203    1.26655    1.82587
C      0.54510    3.22822    2.82199
C     -0.19072    3.02606    3.98682
C     -1.13680    1.08335    3.01804
C      0.37782   -0.96703    0.82010
C      1.26973   -0.29698   -0.25532
C      1.17576    4.76208    4.32329
C     -0.55605    0.27888    0.67878
N      0.12868    0.59070   -0.59759
O      1.29499    4.37956    2.94202
O      0.06265    4.04309    4.88225
Br    -2.28833   -0.44741    3.22500
H      1.03484    2.56174    0.84578
H     -1.62384    1.78676    5.02528
H     -0.10148   -1.88365    0.47156
H      0.81716   -1.13072    1.80487
H      2.13581    0.21898    0.18310
H      1.61062   -0.92347   -1.08620
H      2.09355    4.48138    4.85769
H      0.98179    5.83440    4.38641
H     -1.61598    0.04945    0.53638
H      0.33947    1.56787   -0.78615
