40

C      2.19546   -0.80633    0.04452
C      0.79032   -0.73688   -0.07501
C      2.81775   -1.93645    0.57071
C     -0.02242   -1.79584    0.33092
C      4.59371   -7.89201    5.85933
C      2.02388   -3.02108    0.98578
C      2.30386   -4.31071    1.56232
C      0.60547   -2.92844    0.85879
C      3.68892   -7.35553    4.89957
C      1.10060   -4.94501    1.75817
C      3.82673   -8.75069    6.59776
C      4.06491   -6.27046    3.92750
C      3.61973   -4.92759    1.94616
C      0.94258   -6.32074    2.32325
C      5.47713  -10.19374    7.96928
C      4.96353   -9.12257    8.89079
C      2.31716   -7.00689    2.25179
C      4.08334   -9.62509    7.75089
N      2.46918   -7.84117    5.04677
N      0.06926   -4.11501    1.33957
N      3.36993   -6.12492    2.76375
O      5.00682   -5.53638    4.24598
O      2.55238   -8.73000    6.12513
H      2.79790    0.03837   -0.27902
H      0.33288    0.15785   -0.48880
H      3.90067   -1.97715    0.66000
H     -1.10453   -1.73717    0.23957
H      5.63784   -7.63954    5.96812
H      4.20866   -5.20692    1.05980
H      4.23154   -4.24508    2.53732
H      0.60165   -6.29609    3.36523
H      0.21367   -6.90932    1.75163
H      6.23784   -9.92542    7.24272
H      5.54238  -11.21176    8.34081
H      4.67154   -9.39944    9.89919
H      5.36772   -8.12025    8.78966
H      2.30965   -7.94163    2.80387
H      2.55777   -7.22444    1.20371
H      3.24137  -10.25432    8.02112
H     -0.91357   -4.34487    1.37110
