19

C      1.24963    1.79374    1.90316
C      1.53554    2.57014    3.02272
C     -0.47400    2.12938    4.04244
C      0.00534    1.13876    1.85763
C     -0.61618    0.27061    0.87648
C     -0.85612    1.32653    2.96224
C     -1.87844   -0.17314    1.22153
C     -2.82887   -1.06861    0.48660
N      0.70700    2.74471    4.07441
N      0.02019   -0.10795   -0.36422
O     -0.59601   -0.85747   -1.13766
O      1.15368    0.33886   -0.59092
S     -2.36452    0.45346    2.76683
H      1.96141    1.69743    1.09471
H      2.48974    3.08893    3.08695
H     -1.13446    2.27708    4.89576
H     -3.74925   -1.21120    1.05807
H     -3.07464   -0.64518   -0.49058
H     -2.36848   -2.04181    0.29810
