44

C      2.28931    4.43852    2.08949
C      2.45002    2.82234    0.26898
C      2.53846    4.12303    0.71761
C      2.68075    2.46047   -1.08176
C      3.05224    3.45493   -1.97059
C      2.88235    5.20290   -0.20261
C     -1.95766   -0.26282   -0.16311
C      2.64161    1.02274   -1.51106
C     -0.57503    0.37878    2.31158
C      0.10052   -0.59503    1.35181
C      0.06720   -1.55257   -1.00865
C     -2.07369    0.11386    2.32626
C      1.50007   -1.14946   -1.40279
C      0.22545    0.80659   -0.75949
C     -0.42862   -0.41789   -0.08115
C      3.40855    3.22871   -3.41162
C     -4.10286    0.14693    0.92013
N      2.06441    4.64571    3.21453
N      3.12603    4.73702   -1.51527
N     -2.64744    0.04282    0.97898
N      1.55159    0.29900   -1.13389
O      2.97576    6.39833    0.05129
O     -2.51780   -0.36611   -1.25922
O      3.58093    0.51776   -2.13668
H      2.21597    2.04131    0.98693
H     -0.18337    0.26622    3.32726
H     -0.38610    1.41610    2.01251
H      1.18893   -0.47118    1.36121
H     -0.09931   -1.62149    1.68401
H     -0.57904   -1.59001   -1.88681
H      0.03441   -2.52824   -0.51682
H     -2.28455   -0.82621    2.85842
H     -2.59561    0.90979    2.86875
H      2.26878   -1.65046   -0.80634
H      1.72086   -1.35333   -2.45395
H     -0.35030    1.08573   -1.64987
H      0.28524    1.67476   -0.10572
H      3.24668    4.13506   -4.00247
H      2.82548    2.41280   -3.83846
H      4.46074    2.93794   -3.48848
H     -4.56544   -0.64031    1.52869
H     -4.42520    0.04066   -0.11374
H     -4.42502    1.12030    1.30713
H      3.38080    5.47911   -2.16205
