41

C      1.11365    0.24309   -1.07451
C      0.28517    0.43860    2.61018
C      0.14497   -1.09022    2.70889
C     -0.58688    0.82157    1.39859
C      0.14689   -1.54100    1.24004
C     -2.40373    0.51864   -1.61566
C     -1.14270   -0.25880   -1.98902
C     -2.12580   -0.92705    0.34416
C     -0.66153   -0.44886    0.48695
C      3.81746   -0.08283   -2.40340
C      2.59471    0.97816   -4.32987
C      2.98283    2.31490   -2.23367
C      2.72938    0.91697   -2.80624
N     -3.01802   -0.02924   -0.38875
N     -0.16588   -0.20357   -0.89443
O      1.90555    0.44730   -0.15695
O      1.40498    0.42446   -2.39323
H     -0.01485    0.95489    3.52799
H      1.32609    0.69481    2.39754
H      0.94629   -1.55566    3.29122
H     -0.80424   -1.35580    3.19232
H     -1.59773    1.09456    1.72649
H     -0.18206    1.67802    0.85727
H      1.17064   -1.56522    0.86566
H     -0.29183   -2.53411    1.09229
H     -2.12540    1.57452   -1.48854
H     -3.11540    0.46326   -2.44975
H     -1.39385   -1.30028   -2.22402
H     -0.69517    0.17275   -2.88021
H     -2.13218   -1.90802   -0.14385
H     -2.53641   -1.08239    1.34547
H      3.92853   -0.13016   -1.32015
H      3.57169   -1.08102   -2.78008
H      4.77251    0.22171   -2.84448
H      1.79189    1.66336   -4.61887
H      2.36791   -0.01204   -4.73625
H      3.52915    1.33129   -4.77607
H      2.15494    2.98449   -2.48933
H      3.09266    2.28459   -1.14970
H      3.89894    2.72594   -2.67088
H     -3.31271    0.73140    0.21518
