44

C     -2.26142    5.36455   -0.49476
C     -1.99554    3.33639   -1.80505
C     -2.31103    3.93950   -0.60431
C     -1.92839    6.13317   -1.57801
C     -1.60720    4.11384   -2.96471
C     -0.47349   -0.56649    1.81531
C     -2.18770    1.84926   -1.96325
C      1.03097    1.21028   -0.83244
C     -0.01651   -1.02125   -1.33965
C      0.29376    1.56327   -2.13905
C     -1.22478   -0.38398   -2.05136
C      1.53995   -0.81135    0.67976
C      0.52046   -0.10703   -0.23433
C     -2.73986    3.12885    0.59409
C     -1.87566    7.63424   -1.57763
C      1.22969   -1.96387    2.91841
N     -1.62094    5.50336   -2.75392
N      0.68891   -1.30435    1.74532
N     -1.07498    1.07171   -2.10636
O     -1.26378    3.66931   -4.06836
O     -1.29826   -0.55710    2.70491
O     -3.32270    1.36949   -1.90819
O     -0.58199    0.19414    0.67909
H     -2.50299    5.84665    0.44613
H      2.10636    1.12756   -1.03067
H      0.89354    1.99576   -0.08353
H     -0.30874   -1.98929   -0.92117
H      0.80198   -1.20883   -2.04492
H      0.30157    2.63493   -2.31505
H      0.80004    1.10810   -2.99869
H     -1.33196   -0.79755   -3.06236
H     -2.14739   -0.59292   -1.51062
H      2.05773   -1.62482    0.16079
H      2.29598   -0.10803    1.06373
H     -3.79347    2.84988    0.48924
H     -2.62447    3.70300    1.51739
H     -2.17560    2.19822    0.68593
H     -0.87690    7.99436   -1.85083
H     -2.12170    8.02587   -0.58932
H     -2.58903    8.05060   -2.29833
H      1.70071   -2.91030    2.63475
H      0.40868   -2.16368    3.60799
H      1.97519   -1.33549    3.42609
H     -1.36165    6.04708   -3.57187
