16

C      1.79534   -1.20693   -0.07493
C      0.74881   -0.55543    0.56502
C      1.84001   -0.99575    2.70119
C      2.87197   -1.75990    0.64193
C      2.90199   -1.65654    2.05513
C      0.79223   -0.46132    1.95956
C      3.96311   -2.44418   -0.08232
O      4.93834   -2.95534    0.44498
O      3.79242   -2.46344   -1.43374
S      4.23653   -2.33635    3.00947
Br    -0.63027    0.42849    2.88054
H      1.79183   -1.29702   -1.15525
H     -0.07663   -0.13243    0.00344
H      1.82993   -0.89806    3.78159
H      4.56810   -2.93663   -1.79007
H      3.71358   -1.93658    4.19189
