29   

C        3.0827046997   -2.8217955691    0.6819694023
C        2.4556872620   -1.6310154530    0.3063215208
C        2.8673791515   -3.3459189090    1.9592488687
C        1.6121792112   -0.9684469086    1.2051926034
C        2.0308456115   -2.6772674849    2.8600228610
C       -0.1577458562   -4.4163159781    5.7023317101
C       -0.0377632982   -5.6847755023    5.1287153376
C       -1.3789155244   -3.6781671050    3.7571550062
C        1.3909331718   -1.4815425091    2.4939293585
C       -0.8177606466   -3.3955088833    5.0108849708
C       -0.5735515410   -5.9593799100    3.8638643780
C       -1.2571978519   -4.9434945941    3.1715088029
C        0.5091501165   -0.7873169015    3.4275816395
C        0.3878060838   -0.8933446838    4.8032310948
O       -2.2147204970   -1.0958468321    5.3467309851
O       -0.6358619886   -1.7070656676    7.1429247440
S       -0.9261336337   -1.7117408648    5.7003690675
Cl      -0.3814031232   -7.5553169048    3.1717063361
Cl      -1.9480782530   -5.2292142075    1.5886830303
H        3.7341603039   -3.3369852695   -0.0152440581
H        2.6234327060   -1.2193651483   -0.6826538809
H        3.3487031950   -4.2719161222    2.2528771524
H        1.1350978098   -0.0447456141    0.8964661374
H        1.8740085926   -3.0979766275    3.8466464803
H        0.2668471711   -4.2216927036    6.6844562283
H        0.4794982693   -6.4709220839    5.6661326952
H       -1.9104917646   -2.9003094531    3.2159659327
H       -0.1567226596   -0.0574485587    2.9776259769
H        1.1756115571   -0.5074105826    5.4304768522
29   

C        2.8590990910   -3.1018709102    0.8812191222
C        2.1717218924   -1.9876131497    0.3940685441
C        2.8006769321   -3.4115594108    2.2421172933
C        1.4214276675   -1.1898077770    1.2652013377
C        2.0565931032   -2.6081295076    3.1130894393
C       -0.0688330354   -4.3959113543    5.5514001131
C        0.1165863185   -5.6109789884    4.8865660683
C       -1.2398889035   -3.5466503728    3.6210023243
C        1.3501342919   -1.4909951026    2.6357523453
C       -0.7338048454   -3.3440528379    4.9132752007
C       -0.3570748237   -5.8005200629    3.5818458845
C       -1.0493384883   -4.7559335135    2.9432814315
C        0.5415697750   -0.6668667387    3.5329816962
C        0.3628656861   -0.7591282830    4.8918645275
O       -2.2272562843   -1.1359437403    5.4094051784
O       -0.6265092819   -1.8002068234    7.1584496308
S       -0.9112073709   -1.7173103522    5.7170195953
Cl      -0.0762982977   -7.3270233708    2.7733968322
Cl      -1.6611622066   -4.9340065998    1.3129148991
H        3.4361490394   -3.7235042474    0.2055816418
H        2.2177130613   -1.7422152503   -0.6610801209
H        3.3314658808   -4.2762485981    2.6239588160
H        0.8911584837   -0.3322842276    0.8658583864
H        2.0251473805   -2.8634921511    4.1657685849
H        0.3117835693   -4.2653245949    6.5616813960
H        0.6393449821   -6.4205058881    5.3821265969
H       -1.7747157569   -2.7452627524    3.1191707325
H        0.0258669871    0.1667521970    3.0667191507
H        0.9931121449   -0.1870341884    5.5544735244
29   

C        2.7120402988   -3.3434091573    1.1798147661
C        1.8927378369   -2.3836157948    0.5806420540
C        2.8500398268   -3.3665615256    2.5695485901
C        1.2056770817   -1.4550886283    1.3707143766
C        2.1641036495   -2.4362457511    3.3579078642
C        0.0649029981   -4.3430080664    5.2749187591
C        0.2755039006   -5.4850229137    4.4977034355
C       -1.2184139807   -3.3827356369    3.4726389267
C        1.3233561206   -1.4752888117    2.7703028578
C       -0.6666427588   -3.2694203544    4.7570597996
C       -0.2374097999   -5.5786693932    3.1975286796
C       -1.0001207026   -4.5158449456    2.6811917502
C        0.5569883417   -0.5315974344    3.5915111066
C        0.3097579057   -0.6052979790    4.9287815607
O       -2.2253326144   -1.1870359767    5.5220835824
O       -0.5132979154   -1.9181661984    7.1198084373
S       -0.8679583327   -1.7244330323    5.7045950168
Cl       0.0841309238   -7.0092540718    2.2423624270
Cl      -1.6615976785   -4.5743659636    1.0616109247
H        3.2391385870   -4.0672962886    0.5682609171
H        1.7850058769   -2.3621128154   -0.4980369077
H        3.4863557520   -4.1084630787    3.0382935773
H        0.5665402150   -0.7245948675    0.8872350413
H        2.2813308588   -2.4698026822    4.4351245251
H        0.4803350987   -4.2839107046    6.2779715266
H        0.8518478155   -6.3097922177    4.8994524979
H       -1.8061066392   -2.5654812626    3.0648738718
H        0.1763089798    0.3500574582    3.0856381272
H        0.7146198452    0.1417826321    5.5935906899
29   

C        2.6383026744   -3.4113009243    1.2928379847
C        1.8111949850   -2.4788486252    0.6619208669
C        2.8051158483   -3.3638833075    2.6789176384
C        1.1445441889   -1.5075712644    1.4172641507
C        2.1382357471   -2.3917132680    3.4325752815
C        0.0749130945   -4.3635859367    5.1654996506
C        0.2886622206   -5.4891625345    4.3660514394
C       -1.2221362908   -3.3755117581    3.3883747374
C        1.2882190430   -1.4597054698    2.8135285382
C       -0.6651238384   -3.2838765003    4.6721012393
C       -0.2293495772   -5.5605705426    3.0667662798
C       -1.0002516079   -4.4921683344    2.5742254644
C        0.5491190935   -0.4630326373    3.6015159598
C        0.1777163589   -0.5370859577    4.9009296734
O       -2.2813188806   -1.3051953314    5.5729205457
O       -0.4672475022   -1.9894260800    7.0582289792
S       -0.8888016516   -1.7705383933    5.6650201126
Cl       0.0950895973   -6.9714575213    2.0837329188
Cl      -1.6694881607   -4.5246740262    0.9571747418
H        3.1496871377   -4.1681447514    0.7084510525
H        1.6819137427   -2.5115488751   -0.4141098640
H        3.4489342636   -4.0832880986    3.1718090822
H        0.4999582557   -0.7976191164    0.9109415878
H        2.2775321829   -2.3676906050    4.5076468159
H        0.4922208451   -4.3230428771    6.1687105954
H        0.8703917426   -6.3184236914    4.7503791775
H       -1.8184238926   -2.5550915579    3.0003648633
H        0.3117626325    0.4650486345    3.0911469846
H        0.3754692325    0.3024232135    5.5494999181
29   

C        3.1676536944   -3.5334466803    1.9163645380
C        2.1351520434   -3.0602583922    1.1019257717
C        3.3175284219   -3.0282889699    3.2105801658
C        1.2538722166   -2.0843728171    1.5812697331
C        2.4326587474   -2.0566400517    3.6904295149
C        0.1842497226   -4.2671259649    4.4960812115
C        0.0636575668   -5.2718869355    3.5353405192
C       -1.7897347402   -3.2031786071    3.6097791800
C        1.3863902772   -1.5765131221    2.8832335265
C       -0.7305678216   -3.2087663627    4.5275260339
C       -0.9714954913   -5.2471562823    2.5941902264
C       -1.9149870233   -4.2036169655    2.6368360473
C        0.4412454624   -0.5694488990    3.3935683275
C        0.0186328725   -0.4506164304    4.6670491825
O       -1.7868686886   -1.4782324682    6.3419821837
O        0.5429035022   -2.1440261442    6.6846083752
S       -0.5093428163   -1.8299401467    5.7032337407
Cl      -1.0656397874   -6.5071852999    1.3833770876
Cl      -3.2294612885   -4.1239143442    1.4840705300
H        3.8518792373   -4.2879163450    1.5442476148
H        2.0152368972   -3.4509954223    0.0976522721
H        4.1200677025   -3.3872672527    3.8452924159
H        0.4535589173   -1.7334747388    0.9392824144
H        2.5618444055   -1.6742741866    4.6983337967
H        1.0067296510   -4.2957344499    5.2064236187
H        0.7894543636   -6.0757942880    3.5080166997
H       -2.5197414987   -2.3994783185    3.6348178066
H        0.0786710975    0.1633539182    2.6798959194
H       -0.2215936665    0.5206645938    5.0713883524
29   

C        3.1551143351   -3.5512162726    1.9809255894
C        2.1284441606   -3.0785983681    1.1586926913
C        3.3188424919   -3.0182562635    3.2623940597
C        1.2672646316   -2.0753367936    1.6175722567
C        2.4533965588   -2.0195513038    3.7218790913
C        0.1933143293   -4.2720052935    4.4212806020
C        0.0500191120   -5.2761058031    3.4631447426
C       -1.7967685041   -3.2031862352    3.5784975995
C        1.4135482124   -1.5401628956    2.9068730432
C       -0.7192073495   -3.2124673764    4.4743682103
C       -1.0055601754   -5.2492259015    2.5451852461
C       -1.9451861957   -4.2031681264    2.6081446755
C        0.4914195913   -0.4965766593    3.3940130478
C       -0.0667401049   -0.4280106557    4.6129763685
O       -1.7228730800   -1.5482878086    6.3760140444
O        0.6447350248   -2.1316465643    6.5668173981
S       -0.4748764917   -1.8412608197    5.6546260127
Cl      -1.1298660934   -6.5100411316    1.3378923858
Cl      -3.2846545998   -4.1209183289    1.4846967541
H        3.8242430919   -4.3265506962    1.6246077355
H        1.9975672519   -3.4905602436    0.1643220860
H        4.1169822950   -3.3762647399    3.9031973775
H        0.4714740223   -1.7235943122    0.9704230240
H        2.5929304455   -1.6145859548    4.7195882557
H        1.0308180172   -4.3028981407    5.1137475134
H        0.7733865235   -6.0815201733    3.4203946911
H       -2.5245539879   -2.3982624903    3.6195200826
H        0.2407919225    0.2911447088    2.6908096728
H       -0.4494981309    0.5116039468    4.9809150150
29   

C        3.1275709976   -3.5690432350    2.0181374840
C        2.1015607096   -3.0810729913    1.2039905480
C        3.3176046308   -3.0296282283    3.2934476961
C        1.2679309251   -2.0557041984    1.6646994446
C        2.4790415218   -2.0088902489    3.7547777286
C        0.2037216961   -4.2808636907    4.4061158368
C        0.0622462189   -5.2909261631    3.4539558667
C       -1.7950325059   -3.2273249281    3.5650710070
C        1.4412729649   -1.5138681593    2.9476182170
C       -0.7149046593   -3.2266637158    4.4578237121
C       -0.9970601946   -5.2748654900    2.5400535088
C       -1.9417386969   -4.2332610332    2.6006262993
C        0.5488647022   -0.4412576017    3.4356859218
C       -0.1477296657   -0.4286973687    4.5801756972
O       -1.7123648154   -1.5977881307    6.3909870881
O        0.6770388007   -2.1087509970    6.5122639850
S       -0.4769931785   -1.8506471920    5.6335721607
Cl      -1.1197418618   -6.5434322772    1.3407298654
Cl      -3.2859643944   -4.1642976963    1.4819348375
H        3.7756172334   -4.3613883173    1.6603099921
H        1.9497981794   -3.4979551089    0.2146503231
H        4.1151084970   -3.3997964340    3.9280815284
H        0.4723741520   -1.6907448910    1.0245946312
H        2.6371921827   -1.5986896302    4.7475656161
H        1.0439181462   -4.3033939718    5.0955981873
H        0.7897284220   -6.0926876815    3.4129597129
H       -2.5268582650   -2.4260489886    3.6041066109
H        0.4154298910    0.4061023940    2.7708492672
H       -0.6436464529    0.4749330570    4.9000992113
29   

C        1.9929501311   -3.0252089038    0.8731623722
C        1.0931152877   -1.9558474137    0.8726482315
C        2.7099154986   -3.3288133015    2.0337734784
C        0.9060575190   -1.1967839960    2.0332338168
C        2.5258489580   -2.5647982596    3.1917450177
C       -0.2611908645   -3.9911358028    5.4253911463
C        0.1592834623   -5.2871387042    5.1152566291
C       -0.9294676677   -3.6838780335    3.1295101071
C        1.6157291648   -1.4970033359    3.2072990660
C       -0.7924958076   -3.1691194168    4.4270578664
C        0.0484647555   -5.7902070487    3.8127784882
C       -0.5110388913   -4.9802652377    2.8086192259
C        1.4060280251   -0.7056417971    4.4417799888
C        0.2770703249   -0.6177839738    5.1553639018
O       -1.9174149760   -0.8275144064    3.6143771263
O       -2.1290478680   -1.3929742634    5.9856428067
S       -1.2765517802   -1.4461422823    4.7877277856
Cl       0.6084509984   -7.4105948886    3.4612414141
Cl      -0.6806501839   -5.5581484386    1.1647361015
H        2.1322378902   -3.6191958161   -0.0233484691
H        0.5353309303   -1.7155379920   -0.0256346386
H        3.4058106044   -4.1601449451    2.0374940980
H        0.2000995721   -0.3719054172    2.0222317859
H        3.0830267637   -2.8146243037    4.0875883628
H       -0.1653977236   -3.6185475048    6.4415549032
H        0.5815577955   -5.9155650677    5.8902903689
H       -1.3527800843   -3.0623511554    2.3454094370
H        2.2841214495   -0.2118246933    4.8453267255
H        0.2489752217   -0.0137707143    6.0492739608
29   

C        2.0058651443   -3.0173963906    0.8419777601
C        1.0975181920   -1.9562465869    0.8807602544
C        2.7354112691   -3.3488467284    1.9869309386
C        0.9136194441   -1.2341030804    2.0649805064
C        2.5541772290   -2.6220847132    3.1691662921
C       -0.2803920958   -3.9695842022    5.4410528458
C        0.1474830897   -5.2670957454    5.1477145728
C       -0.9390225952   -3.6917462359    3.1385422660
C        1.6336162947   -1.5642902764    3.2254498053
C       -0.8098097110   -3.1612051811    4.4306059731
C        0.0462052538   -5.7851266130    3.8503002956
C       -0.5121524735   -4.9893102345    2.8342866589
C        1.4256990953   -0.8172853644    4.4828525855
C        0.2570139186   -0.5880982184    5.0975551352
O       -1.9577069909   -0.8389871399    3.5931110844
O       -2.1332707197   -1.3617554173    5.9757349058
S       -1.2969987932   -1.4340557103    4.7674585603
Cl       0.6168233270   -7.4061875492    3.5195956672
Cl      -0.6688999546   -5.5856098693    1.1957575659
H        2.1428638780   -3.5826638518   -0.0732562002
H        0.5310533532   -1.6930025828   -0.0056097557
H        3.4390779183   -4.1731708407    1.9595119004
H        0.2028400275   -0.4135274544    2.0812713592
H        3.1216129731   -2.8949314558    4.0517339122
H       -0.1910946612   -3.5848002067    6.4532929903
H        0.5687457051   -5.8848155306    5.9318562031
H       -1.3611695545   -3.0812365883    2.3451800629
H        2.3212955009   -0.4531553913    4.9758554196
H        0.2095910765    0.1021337071    5.9258496818
29   

C        2.0454118450   -3.0038595715    0.8246833074
C        1.1179213162   -1.9606007464    0.8843978753
C        2.7789501948   -3.3465171370    1.9637092814
C        0.9186728652   -1.2678569470    2.0834572427
C        2.5821145600   -2.6495442619    3.1613500128
C       -0.2970615515   -3.9445756895    5.4543964410
C        0.1417105784   -5.2390973075    5.1638132442
C       -0.9605247630   -3.6784282898    3.1517657376
C        1.6419007246   -1.6102842881    3.2391436890
C       -0.8334333226   -3.1430315810    4.4421138358
C        0.0447857335   -5.7607908523    3.8674855441
C       -0.5216158872   -4.9724871286    2.8500805687
C        1.4140846867   -0.9000541771    4.5103590949
C        0.2256777130   -0.5425296280    5.0241797964
O       -2.0413551894   -0.8477053992    3.6165108177
O       -2.1177148640   -1.3336655036    6.0120098394
S       -1.3288064744   -1.4169174453    4.7729807657
Cl       0.6309746739   -7.3768871883    3.5397645695
Cl      -0.6725219817   -5.5731212745    1.2126208110
H        2.1945116877   -3.5462223250   -0.1024378411
H        0.5486861113   -1.6883536135    0.0025218685
H        3.4979710829   -4.1567492197    1.9195926739
H        0.1930890671   -0.4607637820    2.1143065575
H        3.1530074040   -2.9324755998    4.0384723751
H       -0.2103374005   -3.5563289253    6.4656018356
H        0.5687773211   -5.8513866643    5.9490731986
H       -1.3888469379   -3.0737963727    2.3571817082
H        2.2985531650   -0.6430916218    5.0842751247
H        0.1707700477    0.2408651675    5.7644251018
29   

C        2.1004498320   -3.0168033946    0.8191623023
C        1.1511862933   -1.9935949967    0.8806727543
C        2.8271180419   -3.3591139803    1.9626340684
C        0.9235440885   -1.3204672166    2.0857387191
C        2.6015290584   -2.6822685256    3.1667810343
C       -0.3173988194   -3.9387866338    5.4486811859
C        0.1291760387   -5.2253710838    5.1359269678
C       -1.0182692894   -3.6513015028    3.1595544971
C        1.6397857365   -1.6628277964    3.2464335943
C       -0.8752062345   -3.1298665942    4.4538756277
C        0.0191232835   -5.7316871498    3.8345633190
C       -0.5704299746   -4.9368832438    2.8354455555
C        1.3773105948   -0.9788394459    4.5233383938
C        0.1853130969   -0.5072739618    4.9364785143
O       -2.1748748176   -0.8581575178    3.7068377200
O       -2.0681480656   -1.3279575845    6.1051946232
S       -1.3724491886   -1.4097516955    4.8113919302
Cl       0.6184257977   -7.3367786745    3.4778718286
Cl      -0.7375935258   -5.5181477286    1.1926400887
H        2.2717679459   -3.5438063844   -0.1129599166
H        0.5871886204   -1.7220590584   -0.0047688394
H        3.5632065333   -4.1537719913    1.9167880298
H        0.1804215626   -0.5295733025    2.1172280683
H        3.1674274427   -2.9661935692    4.0467832948
H       -0.2192926512   -3.5615980297    6.4631345318
H        0.5735420178   -5.8429835510    5.9073046499
H       -1.4642998562   -3.0412641893    2.3789602116
H        2.2311490151   -0.8112291955    5.1718000419
H        0.1350015836    0.3730672026    5.5585719331
29   

C        2.2159802948   -3.0960851891    0.8618808392
C        1.2201612247   -2.1165873313    0.8824410281
C        2.9349242161   -3.3793459075    2.0261219212
C        0.9388674812   -1.4281568770    2.0673528994
C        2.6543656474   -2.6882142416    3.2104859555
C       -0.2940527935   -3.9445767419    5.4073764711
C        0.1525187472   -5.2094917207    5.0174049456
C       -1.1472644622   -3.5834644870    3.1810141680
C        1.6462131362   -1.7119363057    3.2490636939
C       -0.9270380155   -3.1086888925    4.4819909336
C       -0.0313518505   -5.6672626241    3.7066280483
C       -0.6984071626   -4.8469210269    2.7790870813
C        1.3243839411   -1.0170007913    4.5043598840
C        0.1282838398   -0.4729685229    4.8271813230
O       -2.3860003867   -0.8648606209    3.9773408580
O       -1.8971346178   -1.3594623689    6.3247347082
S       -1.4112127850   -1.4088173065    4.9367836589
Cl       0.5745724526   -7.2440771092    3.2493402827
Cl      -0.9582646978   -5.3679230059    1.1282678493
H        2.4296031622   -3.6344756621   -0.0548627907
H        0.6620518064   -1.8915494685   -0.0195555748
H        3.7080834789   -4.1392212507    2.0116378180
H        0.1606697442   -0.6716090433    2.0670742275
H        3.2155828489   -2.9270385600    4.1067113695
H       -0.1357915405   -3.6033026666    6.4271007784
H        0.6562877974   -5.8467545348    5.7343815679
H       -1.6530853363   -2.9524123413    2.4556224334
H        2.1360057657   -0.8841825464    5.2123523060
H        0.0776250372    0.5152039098    5.2575566778
29   

C        2.6769521926   -3.3423009903    1.2095417624
C        1.4367125562   -2.7072648390    1.1136473502
C        3.4648380608   -3.1557095951    2.3481337686
C        0.9840402952   -1.8921539126    2.1566468851
C        3.0073325215   -2.3449863488    3.3934420428
C       -0.1473046144   -3.9494779361    4.9855037997
C        0.1562914061   -5.1446147116    4.3320078705
C       -1.7287862420   -3.4167036915    3.2438796045
C        1.7560300269   -1.7111318615    3.3170730880
C       -1.0746679335   -3.0604205834    4.4313778850
C       -0.4659180701   -5.4830367408    3.1249726248
C       -1.4286426588   -4.6132590133    2.5794613744
C        1.2673555624   -0.8976570741    4.4350585254
C        0.0007845896   -0.4420834512    4.6481393599
O       -2.6472965900   -0.8558690492    4.7481416574
O       -1.3129640565   -1.5648050056    6.6815700255
S       -1.3825302856   -1.4441575034    5.2166551981
Cl      -0.0303263866   -6.9743867226    2.3196052216
Cl      -2.2405204588   -4.9904774325    1.0758146408
H        3.0269966200   -3.9755218279    0.4017953848
H        0.8223670702   -2.8475415800    0.2312614605
H        4.4307131730   -3.6426647720    2.4223931302
H        0.0209596529   -1.4034723806    2.0621957804
H        3.6298249604   -2.2185215844    4.2722185504
H        0.3543551502   -3.6998263757    5.9168007484
H        0.8921659309   -5.8169378313    4.7567559082
H       -2.4689982442   -2.7470154712    2.8145668850
H        2.0120110454   -0.5756502199    5.1559946970
H       -0.2001945265    0.6177684560    4.6288896402
29   

C        3.0106099451   -3.2112023801    1.1642685153
C        1.6684284198   -2.8281285051    1.1084068927
C        3.7865684958   -2.8578718465    2.2710476008
C        1.1046979594   -2.0933534926    2.1570351844
C        3.2185883146   -2.1300530749    3.3230279765
C       -0.2837918395   -3.9985079684    4.9701362141
C       -0.1003243105   -5.2144148525    4.3105049059
C       -1.9591203579   -3.3868320542    3.3459314599
C        1.8688635228   -1.7415967136    3.2828036226
C       -1.2007500262   -3.0626485812    4.4792519462
C       -0.8324450780   -5.5261972189    3.1592915054
C       -1.7799085510   -4.6043588420    2.6756110819
C        1.2769913305   -1.0028857039    4.3975854594
C       -0.0020855130   -0.5246148487    4.5430945662
O       -2.6424675489   -0.7913245959    4.9279902342
O       -1.1428569947   -1.5483858566    6.7284071082
S       -1.3654795570   -1.4326158144    5.2783610517
Cl      -0.5520615070   -7.0505774839    2.3465870906
Cl      -2.7258158628   -4.9465760812    1.2435778346
H        3.4485163846   -3.7786967395    0.3505343106
H        1.0618544063   -3.0998954515    0.2516984949
H        4.8300765734   -3.1491083992    2.3150469654
H        0.0634003890   -1.8006217192    2.0918684897
H        3.8368558904   -1.8688778015    4.1747700682
H        0.2999710286   -3.7726739202    5.8589014855
H        0.6248554847   -5.9257147591    4.6879873970
H       -2.6910842454   -2.6788613270    2.9663928235
H        1.9466464546   -0.7687150451    5.2190449762
H       -0.2404905843    0.4817953763    4.2367348041
29   

C        3.4365494138   -2.9928040961    1.0959569816
C        2.0396926401   -2.9561490182    1.1021415293
C        4.1498835175   -2.4219791276    2.1532286799
C        1.3587971873   -2.3449616806    2.1608902885
C        3.4670165648   -1.8190256853    3.2157440321
C       -0.4924770349   -4.1049135109    4.9853553034
C       -0.4781482102   -5.3502585075    4.3554561889
C       -2.1911700765   -3.3611434160    3.4421966588
C        2.0632571542   -1.7704198418    3.2319095748
C       -1.3390592285   -3.0920181105    4.5221494239
C       -1.3103755861   -5.6133118807    3.2612303644
C       -2.1821888009   -4.6078717180    2.8023949812
C        1.3546585436   -1.1353721192    4.3402092845
C        0.0527815110   -0.6746322947    4.4313703258
O       -2.5565964775   -0.7083196488    5.0328800263
O       -0.9771580325   -1.5576863404    6.7277626775
S       -1.3104751745   -1.4436780373    5.2988724073
Cl      -1.2485611874   -7.1827873082    2.4891524757
Cl      -3.2480221880   -4.8858735909    1.4422982910
H        3.9649963759   -3.4610329400    0.2728636763
H        1.4818956147   -3.4003170531    0.2852656555
H        5.2339429499   -2.4440261196    2.1491807704
H        0.2751173751   -2.3242847501    2.1487215503
H        4.0373180240   -1.3780856159    4.0259689015
H        0.1622244736   -3.9208016379    5.8336408741
H        0.1884849021   -6.1256847701    4.7145735206
H       -2.8694328686   -2.5905760083    3.0850981999
H        1.9435365638   -0.9851036464    5.2396595759
H       -0.2252308808    0.2107995765    3.8818995368
