52

C     -0.25234   -2.43169   -6.97408
C      0.34299   -3.08097   -5.88682
C     -1.41847   -1.68078   -6.79142
C     -0.22430   -2.97444   -4.61503
C     -1.98650   -1.57282   -5.51961
C     -2.04635    1.94372   -1.25890
C     -0.74728    3.53863    0.01412
C     -1.37803    0.89088   -0.60845
C     -1.39097   -2.21792   -4.42546
C     -0.08380    2.51341    0.68459
C     -0.40428    1.17680    0.35870
C     -1.72159    3.25778   -0.95459
C      3.14893   -1.84977    1.07718
C      2.77841   -0.90721   -0.07205
C      2.12120   -1.75195    2.20958
C      1.35539   -1.16938   -0.59111
C      0.70474   -2.03574    1.69652
C     -1.12186   -1.51769    0.06256
C     -1.74191   -0.53326   -0.92640
C      0.29183   -1.13070    0.52776
C      0.95370    2.79536    1.73980
C     -1.96141   -2.04931   -3.04593
N     -1.31409   -0.84540   -2.37587
O      0.25129    0.21423    1.07002
Cl    -2.54373    4.56898   -1.76563
H      0.18569   -2.52002   -7.96404
H      1.23982   -3.67595   -6.03198
H     -1.88833   -1.18853   -7.63770
H      0.23071   -3.49772   -3.77555
H     -2.90463   -1.00337   -5.38606
H     -2.84263    1.73934   -1.97257
H     -0.51119    4.57270    0.24657
H      4.14943   -1.60713    1.44876
H      3.19330   -2.88325    0.70702
H      2.84040    0.13111    0.27174
H      3.48503   -1.00839   -0.90221
H      2.36052   -2.46061    3.00856
H      2.15223   -0.75085    2.65298
H      1.13683   -0.40592   -1.35010
H      1.31611   -2.15588   -1.07523
H      0.64145   -3.07648    1.35337
H     -0.02800   -1.91677    2.50138
H     -1.77311   -1.52940    0.94198
H     -1.11735   -2.53854   -0.32998
H     -2.82872   -0.65524   -0.94897
H      0.64895    2.38110    2.70603
H      1.90986    2.32847    1.48325
H      1.11127    3.86912    1.85688
H     -3.03554   -1.85399   -3.05268
H     -1.76384   -2.90951   -2.40614
H     -1.50240   -0.01571   -2.95148
H     -0.29443   -0.96184   -2.40408
