27   

C       -4.3482427879    0.0095629942    1.5992893219
C       -3.0710161919   -1.4971825999    0.2018905560
C       -3.1782156491    0.3869976219    2.2624186775
C       -1.8982541348   -1.0996932837    0.8559290752
C       -4.3105141943   -0.9378493902    0.5599144418
C       -1.9397887528   -0.1620455899    1.9029949030
C       -0.6837358363    1.5177425250    3.9256113085
C        0.8138464601    0.7248317612    1.6896276765
C       -5.5347088794   -1.3838027287   -0.1859329166
C       -6.8028352728   -0.5595854737   -0.0601155550
C       -0.1345390098   -1.2119454758    3.5232605448
O       -5.5037868181   -2.3360930708   -0.9557438997
S       -0.4131290645    0.3901057663    2.7444159781
H       -5.2817906954    0.4643287176    1.9103219684
H       -3.0106907573   -2.2291510586   -0.5979714251
H       -3.2326048947    1.1275678379    3.0550785551
H       -0.9491336251   -1.5214794437    0.5402318943
H       -0.0837127377    2.4173455257    3.9547512215
H       -1.4399743767    1.3560628288    4.6813751744
H        1.4361023897    1.5943880638    1.8548530844
H        0.9855498112    0.1015745756    0.8234172333
H       -6.5800508685    0.5001902733   -0.2099609342
H       -7.2475212359   -0.7078280665    0.9272881731
H       -7.5235201098   -0.8733653806   -0.8209048234
H        0.7450676750   -1.1348892069    4.1653844695
H       -1.0052313282   -1.4762990457    4.1261285866
H        0.0395691754   -1.9684649244    2.7571590843
27   

C       -4.3808273481   -0.0640302049    1.6964848478
C       -3.1022815143   -1.5161853936    0.2418563896
C       -3.2038905004    0.3325467828    2.3361336698
C       -1.9233059985   -1.0994846256    0.8722230004
C       -4.3439849782   -0.9957302678    0.6453361776
C       -1.9614797479   -0.1795897280    1.9356667955
C       -0.6945172804    1.5012314187    3.9502124990
C        0.7606795114    0.7825387034    1.6619574761
C       -5.5745229927   -1.4432099856   -0.0897748728
C       -6.7410593191   -0.4778210177   -0.1889649791
C       -0.0857322489   -1.2072809017    3.4894058727
O       -5.5854884054   -2.4799845430   -0.7416893475
S       -0.4270723817    0.3988695068    2.7447553755
H       -5.3214553949    0.3592707285    2.0307742036
H       -3.0482213899   -2.2319734425   -0.5729586844
H       -3.2560686300    1.0595214244    3.1414183097
H       -0.9723048791   -1.4911739393    0.5249911719
H       -0.1184325519    2.4164356968    3.9764959005
H       -1.4243226560    1.3076173654    4.7242398045
H        1.3633554109    1.6665078426    1.8232545598
H        0.9256223596    0.1765407069    0.7822967226
H       -6.3761700431    0.5378699683   -0.3639258752
H       -7.3246150095   -0.5036707405    0.7347497209
H       -7.3874943101   -0.7640497886   -1.0236526649
H        0.8090136343   -1.1172214951    4.1085107359
H       -0.9323263888   -1.5038920106    4.1112940324
H        0.0866317322   -1.9469092741    2.7065931439
27   

C       -4.3875705709   -0.1039795277    1.7675960410
C       -3.0968796649   -1.5019768800    0.2700915651
C       -3.2110747624    0.3075972569    2.3988532299
C       -1.9187346519   -1.0702861097    0.8917521356
C       -4.3422949139   -1.0194268138    0.7050634066
C       -1.9629969534   -0.1708120395    1.9728616042
C       -0.7045156594    1.5014209912    3.9997287301
C        0.7343917424    0.8523928079    1.6805607882
C       -5.5737723868   -1.4689099375   -0.0301289147
C       -6.6083132631   -0.4171163194   -0.3813399113
C       -0.0461270264   -1.1859746342    3.4840645041
O       -5.6368978115   -2.5813725958   -0.5377574542
S       -0.4303256133    0.4254122244    2.7722532930
H       -5.3363731080    0.2911917358    2.1136797959
H       -3.0431784099   -2.2013588241   -0.5588133197
H       -3.2681356830    1.0197351875    3.2169559461
H       -0.9640581200   -1.4339505094    0.5246904912
H       -0.1476170384    2.4281529033    4.0340182765
H       -1.4192563972    1.2790670379    4.7800780516
H        1.3202313301    1.7463156242    1.8488666046
H        0.9008827633    0.2643873684    0.7890747509
H       -6.1139471136    0.5193755578   -0.6533962069
H       -7.2679532146   -0.2450664239    0.4727298967
H       -7.2084796849   -0.7562417342   -1.2305456498
H        0.8551622308   -1.0883295227    4.0924370266
H       -0.8777948644   -1.5105677165    4.1121087244
H        0.1301763829   -1.9084409226    2.6862410178
27   

C       -4.4124576320   -0.1441431238    1.8727963783
C       -3.1494055623   -1.4691470829    0.2894700850
C       -3.2230478792    0.2745102225    2.4742023724
C       -1.9581641711   -1.0311688947    0.8814500954
C       -4.3862697554   -1.0286118448    0.7852454381
C       -1.9816708231   -0.1653767254    1.9906284489
C       -0.6847396955    1.4779880585    4.0170092874
C        0.6901170717    0.9055653410    1.6391530634
C       -5.6419919912   -1.4758773783    0.0858991540
C       -6.5306625868   -0.3907090430   -0.4878215952
C       -0.0050749556   -1.1863947262    3.4161702295
O       -5.7961830044   -2.6422421094   -0.2513938218
S       -0.4336753369    0.4357142734    2.7559541849
H       -5.3583801497    0.2187171935    2.2601200156
H       -3.1155636246   -2.1440437566   -0.5603060237
H       -3.2655729232    0.9610738503    3.3147239822
H       -1.0100189752   -1.3641344461    0.4708857039
H       -0.1404649010    2.4119671887    4.0566240907
H       -1.3713879275    1.2263179180    4.8135348315
H        1.2678734413    1.8041314910    1.8106518128
H        0.8381064569    0.3406091721    0.7297155353
H       -5.9178108261    0.4120953562   -0.9064697032
H       -7.1726237906    0.0169465011    0.2968148218
H       -7.1586419884   -0.8051405529   -1.2815990171
H        0.9138616532   -1.0904915499    3.9978242723
H       -0.8117405655   -1.5375395666    4.0623282743
H        0.1548885546   -1.8872638848    2.5959444202
27   

C       -4.4162454134   -0.1440536039    1.9956560866
C       -3.2100508022   -1.4342683336    0.3439659231
C       -3.2076248169    0.2645304686    2.5641622532
C       -1.9986351610   -1.0070456775    0.9026275086
C       -4.4280687429   -1.0032668278    0.8886396229
C       -1.9836662220   -0.1632875901    2.0288349691
C       -0.6196546752    1.4382282431    4.0442773394
C        0.6720138017    0.9209768150    1.6078989311
C       -5.7204695383   -1.4390049440    0.2419886151
C       -6.4470653211   -0.3930635208   -0.5772041361
C        0.0428624257   -1.2112174796    3.3622468850
O       -6.0147085253   -2.6225846785    0.1468241036
S       -0.4108358346    0.4239833388    2.7530683417
H       -5.3498834754    0.2059152292    2.4229354652
H       -3.2063698428   -2.0949271910   -0.5172213313
H       -3.2221996449    0.9327875474    3.4202453299
H       -1.0650412146   -1.3318768357    0.4539880195
H       -0.0768163521    2.3729822310    4.0849241658
H       -1.2771631256    1.1671710794    4.8588670572
H        1.2530719429    1.8176202366    1.7783556873
H        0.7895189119    0.3759287560    0.6820450737
H       -5.7264886034    0.2230133132   -1.1217725155
H       -7.0406514344    0.2457407856    0.0813448151
H       -7.1116895251   -0.8792976480   -1.2969248236
H        0.9806222209   -1.1257401725    3.9147543663
H       -0.7409371352   -1.5787174189    4.0272211280
H        0.1765009519   -1.8933719593    2.5218130124
27   

C       -4.4218069804   -0.1299593032    2.0714731253
C       -3.2555117368   -1.3273542539    0.3272788027
C       -3.2015280679    0.2527987996    2.6321865274
C       -2.0313406038   -0.9274020233    0.8792828574
C       -4.4606999716   -0.9138963362    0.9108675281
C       -1.9902491811   -0.1401258222    2.0447420667
C       -0.5783589666    1.3797829331    4.0917510259
C        0.6633352655    0.9460462137    1.6129444713
C       -5.7796197262   -1.3516149503    0.3156984732
C       -6.3687779973   -0.4433651550   -0.7417305889
C        0.0540107448   -1.2454055122    3.2988719145
O       -6.3777737759   -2.3378540588    0.7217128884
S       -0.4011806670    0.4137089384    2.7596947833
H       -5.3476876686    0.1801808887    2.5446307378
H       -3.2667644910   -1.9500150184   -0.5611266779
H       -3.1983905695    0.8705424619    3.5254637410
H       -1.1074914061   -1.2306381709    0.3966047266
H       -0.0281054242    2.3087563986    4.1572572771
H       -1.2229049032    1.0830128589    4.9077490315
H        1.2535621119    1.8321509102    1.8056620155
H        0.7602182421    0.4351467307    0.6655469836
H       -5.7593957864   -0.4869651604   -1.6480292393
H       -6.3947312948    0.5864344623   -0.3757417498
H       -7.3876043816   -0.7618833773   -0.9800666844
H        1.0031189372   -1.1858010826    3.8351611220
H       -0.7187513899   -1.6325470091    3.9656746331
H        0.1660687985   -1.8967398911    2.4312999629
27   

C       -4.4381840985   -0.1044271131    2.1163041450
C       -3.2957234790   -1.2187368276    0.3057521522
C       -3.2118800937    0.2650100394    2.6719509094
C       -2.0647071144   -0.8327949105    0.8531126826
C       -4.4952186106   -0.8308238447    0.9190062281
C       -2.0084843482   -0.0931410345    2.0483278574
C       -0.5688465842    1.3602511027    4.1262905031
C        0.6429073715    1.0032943520    1.6199713981
C       -5.8240149354   -1.2863909270    0.3672960829
C       -6.3018510717   -0.6052973810   -0.8974944316
C        0.0479125690   -1.2375324393    3.2424054791
O       -6.5890047775   -1.9668726052    1.0367801277
S       -0.4109104763    0.4383317810    2.7610670118
H       -5.3590100605    0.1686395937    2.6218692890
H       -3.3141639009   -1.8101209358   -0.6034179690
H       -3.1990291775    0.8418354513    3.5920556769
H       -1.1467803480   -1.1120610442    0.3452939482
H       -0.0126386541    2.2835118940    4.2170121019
H       -1.2071692403    1.0404294621    4.9384707353
H        1.2400487449    1.8794962448    1.8353430794
H        0.7260718225    0.5240406838    0.6549389240
H       -5.8036615862   -1.0440856631   -1.7654164921
H       -6.0749176306    0.4633143887   -0.8545388721
H       -7.3828194239   -0.7332313162   -1.0039125457
H        1.0038132624   -1.1961552455    3.7682497541
H       -0.7170571089   -1.6439615703    3.9067475787
H        0.1475040583   -1.8616312882    2.3535725666
27   

C       -4.4480313648   -0.0620223302    2.1443858701
C       -3.3335113577   -1.1196901758    0.2851788194
C       -3.2141372760    0.2880608470    2.6950248296
C       -2.0943823938   -0.7526114316    0.8277437937
C       -4.5260980413   -0.7493738575    0.9242020106
C       -2.0202011955   -0.0515504760    2.0446662201
C       -0.5494910332    1.3308136819    4.1502098173
C        0.6273922377    1.0554959378    1.6170613525
C       -5.8642697420   -1.1891262629    0.3924812833
C       -6.2258831995   -0.7560313169   -1.0135567274
C        0.0510712244   -1.2359086599    3.1728472381
O       -6.7240952922   -1.6373106578    1.1391851868
S       -0.4124950086    0.4550808060    2.7527487959
H       -5.3609142464    0.1964706606    2.6721075057
H       -3.3612015868   -1.6831870034   -0.6411452696
H       -3.1886825811    0.8352884370    3.6327870365
H       -1.1837620833   -1.0169435017    0.2991995110
H        0.0111691383    2.2486789515    4.2650044642
H       -1.1788759160    0.9860182766    4.9591528690
H        1.2302706569    1.9221846780    1.8538970578
H        0.6950468829    0.6096362251    0.6349770735
H       -5.7534081594   -1.4207886611   -1.7406724239
H       -5.8869629807    0.2687972570   -1.1871279479
H       -7.3106069636   -0.7959525336   -1.1477624827
H        1.0142873750   -1.2121484843    3.6863097098
H       -0.7048794811   -1.6630516060    3.8345119038
H        0.1375951241   -1.8308812575    2.2629544926
27   

C       -4.4334811760   -0.0575019266    2.2242605139
C       -3.3602632500   -1.0355993572    0.3005023671
C       -3.1888904515    0.2789030282    2.7582881629
C       -2.1101696719   -0.6824115053    0.8274366740
C       -4.5415354679   -0.7020477168    0.9814922049
C       -2.0096338254   -0.0290588006    2.0682189642
C       -0.4957502284    1.2915107707    4.1834984947
C        0.6289610415    1.0926859357    1.6192392679
C       -5.8945311045   -1.1144417613    0.4730791262
C       -6.1818128733   -0.9302841964   -1.0044203437
C        0.0832442280   -1.2438774939    3.1171421219
O       -6.8095676124   -1.3682999154    1.2457741613
S       -0.3880566817    0.4588060051    2.7574745469
H       -5.3327793381    0.1815840347    2.7838615768
H       -3.4017450278   -1.5611555076   -0.6471804791
H       -3.1444450463    0.7919701516    3.7144683090
H       -1.2111264949   -0.9198519083    0.2672269157
H        0.0680065537    2.2052723492    4.3147097256
H       -1.1092226781    0.9229383396    4.9941705782
H        1.2371638692    1.9517847849    1.8697529051
H        0.6764711119    0.6765986912    0.6230351695
H       -5.7837215574   -1.7768031811   -1.5692091163
H       -5.7225345688   -0.0051800540   -1.3630529341
H       -7.2617695283   -0.8716748765   -1.1676419358
H        1.0568287782   -1.2354153046    3.6111532912
H       -0.6591386883   -1.6905811052    3.7812573511
H        0.1503862170   -1.8112202111    2.1881613286
27   

C       -4.2216337624    0.7045647729    1.5244517713
C       -3.6042148101   -1.5195377934    0.8303487125
C       -2.9480645525    0.9003776127    2.0600071887
C       -2.3187746051   -1.3163980153    1.3516329651
C       -4.5683908196   -0.5000482721    0.8896741957
C       -1.9788228066   -0.1072165350    1.9824616374
C       -0.0874267472    1.6927878455    3.2841714799
C        0.8914036431   -0.3520097063    1.6291074006
C       -5.9662549242   -0.6944620598    0.3764169724
C       -6.1806562670   -1.6567428589   -0.7774529522
C       -0.5191331886   -0.9913352452    3.9953079024
O       -6.8858796500    0.0222608490    0.7505046578
S       -0.2989621834    0.1816275316    2.6438646642
H       -4.9553339350    1.5011940462    1.6035439682
H       -3.8325591977   -2.4753712230    0.3723529325
H       -2.7119327464    1.8507656288    2.5296561628
H       -1.5794404260   -2.1065169709    1.2644817273
H        0.7842759660    2.2729509622    3.0129766213
H       -0.8019461777    2.1008974101    3.9858172657
H        1.7821876505    0.2470737426    1.4936873660
H        0.7807020628   -1.2765577875    1.0806680981
H       -6.2185450808   -2.6831241156   -0.4039114460
H       -5.3703618519   -1.5600577135   -1.5050808097
H       -7.1261120186   -1.4279167192   -1.2777512138
H        0.3794977705   -0.9758196230    4.6151665965
H       -1.3812022713   -0.6927024158    4.5947546017
H       -0.6667411969   -1.9938916775    3.5922859266
27   

C       -4.2140608233    0.7387815585    1.5172960673
C       -3.5870721371   -1.4616152696    0.7584611866
C       -2.9455749779    0.9197275472    2.0695277598
C       -2.3065550090   -1.2719375764    1.2969891923
C       -4.5563186571   -0.4484044176    0.8468584952
C       -1.9743560407   -0.0834912869    1.9694256284
C       -0.0977095476    1.6763230232    3.3458964042
C        0.8995083710   -0.3082254839    1.6295153043
C       -5.9440993839   -0.6186593543    0.2998003450
C       -6.2119255793   -1.7638552265   -0.6597871918
C       -0.5264894829   -1.0312604432    3.9615429705
O       -6.8295200098    0.1917224086    0.5426075346
S       -0.3001880956    0.1875942326    2.6524066142
H       -4.9463081907    1.5352134933    1.6107966534
H       -3.7985321966   -2.4035655337    0.2657607601
H       -2.7143238910    1.8563933738    2.5683034424
H       -1.5638268512   -2.0562736062    1.1888407449
H        0.7749066731    2.2672354967    3.1022240448
H       -0.8193828670    2.0588727937    4.0545775758
H        1.7899810383    0.2969773976    1.5221186837
H        0.7951380343   -1.2131628250    1.0481133234
H       -6.2148468247   -2.7127945391   -0.1173962802
H       -5.4496538847   -1.7862965594   -1.4431371438
H       -7.1890922492   -1.6270013418   -1.1321163970
H        0.3675538589   -1.0341097803    4.5881815043
H       -1.3938602258   -0.7556718199    4.5643486146
H       -0.6678249200   -2.0199685701    3.5235895040
27   

C       -4.2221695266    0.7695378442    1.4980511380
C       -3.5737315108   -1.4015995069    0.6760367570
C       -2.9613108507    0.9394712421    2.0708922906
C       -2.3009253191   -1.2223574378    1.2361144967
C       -4.5521734655   -0.3994649591    0.7899398255
C       -1.9833866215   -0.0547701129    1.9505198092
C       -0.1275183774    1.6757985040    3.3911397581
C        0.8948111045   -0.2586018810    1.6326739885
C       -5.9256826855   -0.5466895307    0.2006526628
C       -6.2678760456   -1.8241180250   -0.5443273111
C       -0.5508314668   -1.0488984064    3.9303062820
O       -6.7691634028    0.3332911088    0.3185545992
S       -0.3169500014    0.2052307353    2.6564487411
H       -4.9572179768    1.5618968808    1.6034473128
H       -3.7665863751   -2.3246797185    0.1420827522
H       -2.7403098251    1.8621953085    2.5994058135
H       -1.5511717622   -1.9970266007    1.1084179971
H        0.7448922969    2.2763902166    3.1715004630
H       -0.8576680525    2.0369160380    4.1023411210
H        1.7835421438    0.3530006798    1.5498283021
H        0.8003351155   -1.1483688890    1.0266897423
H       -6.1708773830   -2.6853655276    0.1217809229
H       -5.6071015966   -1.9439008235   -1.4069094254
H       -7.3006188888   -1.7758220888   -0.9018778389
H        0.3377555235   -1.0659445676    4.5644376728
H       -1.4242772954   -0.7920290442    4.5325739152
H       -0.6852844818   -2.0258005240    3.4645543800
27   

C       -4.1911900328    0.7779266921    1.4568358674
C       -3.5194672300   -1.3742824164    0.6032284418
C       -2.9428059094    0.9388791105    2.0588591431
C       -2.2586034012   -1.2034484470    1.1921545638
C       -4.5042528527   -0.3794008216    0.7230724694
C       -1.9596510662   -0.0503932047    1.9379435154
C       -0.1440820430    1.6508983979    3.4619666962
C        0.9249776003   -0.2172726362    1.6606319714
C       -5.8567386907   -0.5116397673    0.0845874935
C       -6.2946459247   -1.8770409638   -0.4136132894
C       -0.5480384023   -1.0931773348    3.9091988744
O       -6.6435661705    0.4262888828    0.0575027829
S       -0.3073289183    0.2023521043    2.6788379044
H       -4.9292671743    1.5680116399    1.5580529774
H       -3.6992368440   -2.2806132426    0.0366168410
H       -2.7342716757    1.8521199223    2.6085325071
H       -1.5026704428   -1.9712596955    1.0596576164
H        0.7256947974    2.2662895581    3.2752873656
H       -0.8893235956    1.9828264032    4.1717391772
H        1.8089174849    0.4048376175    1.6115442554
H        0.8481266448   -1.0873742923    1.0243385924
H       -6.1083760760   -2.6363321616    0.3504460642
H       -5.7537682811   -2.1310370771   -1.3288981193
H       -7.3663272139   -1.8623081256   -0.6326192788
H        0.3301217852   -1.1200931950    4.5573548390
H       -1.4342054682   -0.8646103769    4.5042106437
H       -0.6632927954   -2.0565933810    3.4113571102
27   

C       -4.2158033750    0.7548844872    1.4525686506
C       -3.5019315319   -1.3574016490    0.5359401149
C       -2.9774946647    0.9122972220    2.0764385356
C       -2.2512601325   -1.1902764952    1.1468489996
C       -4.5035223185   -0.3835481669    0.6811245663
C       -1.9789009494   -0.0593426868    1.9358818975
C       -0.2058089281    1.6155306469    3.5379038606
C        0.9115912993   -0.1767291309    1.6893597505
C       -5.8368665386   -0.5055728006    0.0008454661
C       -6.3846560537   -1.8965271660   -0.2626681008
C       -0.5756224525   -1.1467781555    3.8886536980
O       -6.5558024568    0.4714076598   -0.1657904987
S       -0.3391727092    0.1920326232    2.7047547008
H       -4.9654445899    1.5326320113    1.5636686128
H       -3.6689218215   -2.2406505313   -0.0703473201
H       -2.7878360674    1.8104301298    2.6569703751
H       -1.4821854709   -1.9414865046    0.9961028273
H        0.6580546134    2.2480117997    3.3836264011
H       -0.9648450201    1.9140606222    4.2478615364
H        1.7877280671    0.4580181117    1.6730789552
H        0.8544742810   -1.0254085774    1.0227645643
H       -6.1614342684   -2.5567484439    0.5796077665
H       -5.9421069532   -2.3031292108   -1.1755553368
H       -7.4702189251   -1.8478004615   -0.3881413543
H        0.2954522185   -1.1831748111    4.5458448821
H       -1.4716020739   -0.9502018280    4.4803560005
H       -0.6716162381   -2.0945562009    3.3577932442
27   

C       -4.2040444924    0.7715039792    1.4036708305
C       -3.4455602006   -1.3090920752    0.4516645659
C       -2.9792893368    0.9299349094    2.0538989593
C       -2.2080269228   -1.1409136041    1.0882430315
C       -4.4628448900   -0.3540081309    0.6051976206
C       -1.9653751736   -0.0256486947    1.9091493685
C       -0.2484372909    1.6282069076    3.5923705770
C        0.9305660654   -0.0807649038    1.7040711321
C       -5.7763609643   -0.4697080041   -0.1167952431
C       -6.4578904304   -1.8245601312   -0.1369137747
C       -0.5686666665   -1.1500628688    3.8476748413
O       -6.3977304369    0.5277958823   -0.4593360165
S       -0.3422713885    0.2307911469    2.7110301189
H       -4.9653600331    1.5381282271    1.5120725492
H       -3.5972715197   -2.1759741104   -0.1820434526
H       -2.8108320628    1.8176177658    2.6566439134
H       -1.4259583151   -1.8773403466    0.9316321725
H        0.6060133083    2.2807542473    3.4731948782
H       -1.0243071713    1.8896451241    4.2987379218
H        1.7952767610    0.5693768688    1.7234325452
H        0.8984777670   -0.9063032587    1.0073849074
H       -6.3134585571   -2.3313095905    0.8209279519
H       -6.0414512388   -2.4380184955   -0.9396319174
H       -7.5306682674   -1.6975362983   -0.3084507884
H        0.2935767834   -1.1904333378    4.5161937810
H       -1.4767389487   -0.9904394192    4.4319686044
H       -0.6375951323   -2.0819286699    3.2853960138
27   

C       -4.1849184350    0.7088489648    1.3707624202
C       -3.3570585118   -1.3266086806    0.3753639737
C       -2.9762020603    0.8780322910    2.0482840810
C       -2.1359379283   -1.1468191228    1.0395745249
C       -4.3983977144   -0.4013977464    0.5408214817
C       -1.9367082950   -0.0496617410    1.8966708688
C       -0.2924424624    1.5935734555    3.6617053939
C        0.9641303253   -0.0292271565    1.7475399628
C       -5.6904743889   -0.5369377405   -0.2206793346
C       -6.4898002691   -1.8063875157   -0.0059985335
C       -0.5487223422   -1.1971451948    3.8279527458
O       -6.2126251826    0.4327372019   -0.7539260184
S       -0.3355679154    0.2220325699    2.7368244111
H       -4.9672575476    1.4536812783    1.4796674032
H       -3.4805928933   -2.1761708668   -0.2875248797
H       -2.8393324856    1.7528324658    2.6772880850
H       -1.3328808358   -1.8588193865    0.8763674956
H        0.5491946996    2.2682523757    3.5806494532
H       -1.0887313911    1.8160193046    4.3586106653
H        1.8134274002    0.6386980646    1.8053635725
H        0.9647348238   -0.8325830705    1.0246460754
H       -6.4254092477   -2.1164532850    1.0403274332
H       -6.0994470985   -2.6029942802   -0.6439384826
H       -7.5397523000   -1.6317862512   -0.2578238853
H        0.3016488059   -1.2364101273    4.5115758032
H       -1.4712412098   -1.0772012969    4.3989184338
H       -0.5837832829   -2.1132576178    3.2373480294
27   

C       -4.1889378019    0.6730719197    1.3286181589
C       -3.3027936965   -1.3228581968    0.3001728804
C       -2.9933359260    0.8519799780    2.0272103239
C       -2.0950316353   -1.1320470789    0.9850631578
C       -4.3627136529   -0.4216210022    0.4710180611
C       -1.9318098475   -0.0502488592    1.8694918544
C       -0.3537703886    1.5774736158    3.7079823630
C        0.9695466779    0.0524982448    1.7590730738
C       -5.6446736539   -0.5849912032   -0.3096826779
C       -6.5731713647   -1.6943565590    0.1375361557
C       -0.5342688262   -1.2223753162    3.7814002603
O       -6.0404368398    0.2880233702   -1.0693286240
S       -0.3486576957    0.2364217143    2.7384133799
H       -4.9893878480    1.3972471890    1.4424024105
H       -3.4031137130   -2.1596712199   -0.3827574685
H       -2.8833088726    1.7145160289    2.6780667348
H       -1.2748554037   -1.8231241484    0.8171855393
H        0.4711115160    2.2756801837    3.6610592947
H       -1.1648945349    1.7562561434    4.4003091226
H        1.8007655219    0.7390463111    1.8511407611
H        0.9992664977   -0.7246660953    1.0086222911
H       -6.5846943934   -1.7548872002    1.2289963049
H       -6.2338744226   -2.6486468246   -0.2726138321
H       -7.5887395820   -1.4950261100   -0.2162179885
H        0.3085282582   -1.2591422663    4.4744924069
H       -1.4667295552   -1.1471152988    4.3437325720
H       -0.5352452285   -2.1199306442    3.1619721848
27   

C       -4.2082853399    0.6010467608    1.2988818401
C       -3.2460152111   -1.3239299654    0.2012285185
C       -3.0242274345    0.7910894465    2.0146397564
C       -2.0513021911   -1.1209179702    0.9046747804
C       -4.3294766277   -0.4541858033    0.3850354507
C       -1.9309735095   -0.0676064019    1.8299022047
C       -0.4193109009    1.5464611564    3.7343621200
C        0.9679327938    0.1183141852    1.7565826050
C       -5.6149615507   -0.6744051349   -0.3797598735
C       -6.6451603233   -1.5605455924    0.2877461745
C       -0.5229359541   -1.2584730402    3.7212688238
O       -5.7670378667   -0.2657227227   -1.5219223851
S       -0.3656205684    0.2358927432    2.7250677831
H       -5.0360923676    1.2866363927    1.4466055836
H       -3.3206370448   -2.1403004717   -0.5096693197
H       -2.9488695794    1.6269061795    2.7041257463
H       -1.2093479542   -1.7811262257    0.7210923854
H        0.3858068391    2.2687237631    3.7170316454
H       -1.2414444980    1.6810153800    4.4236314193
H        1.7786362277    0.8243741572    1.8788354544
H        1.0279198932   -0.6351579492    0.9840360479
H       -7.1074665726   -1.0256873357    1.1212533262
H       -6.1688191995   -2.4697465791    0.6637436207
H       -7.4199370523   -1.8374329928   -0.4329188282
H        0.3139788725   -1.2948998797    4.4214703078
H       -1.4622941438   -1.2247009936    4.2760497772
H       -0.4948176960   -2.1362471786    3.0746509751
27   

C       -4.2110875765    0.5283436644    1.3014844784
C       -3.1639766785   -1.3300375306    0.1640888181
C       -3.0404331640    0.7458452304    2.0317372948
C       -1.9839239560   -1.0983274072    0.8826966958
C       -4.2782694235   -0.5000400064    0.3514471683
C       -1.9122052566   -0.0636409086    1.8338645324
C       -0.4840412373    1.5541626489    3.7977747572
C        0.9770661508    0.2409635033    1.7940249869
C       -5.5526347132   -0.7931453204   -0.4023735752
C       -6.6777805187   -1.4133370126    0.4002738803
C       -0.4731180524   -1.2516159916    3.7047215322
O       -5.5776656565   -0.8106532228   -1.6251078122
S       -0.3680880596    0.2758978495    2.7527350146
H       -5.0689396438    1.1706972169    1.4694497568
H       -3.2066918335   -2.1357163622   -0.5620541659
H       -3.0041495808    1.5628168686    2.7465150322
H       -1.1170827251   -1.7235769712    0.6927408962
H        0.2906345975    2.3091221756    3.8078763189
H       -1.3158786646    1.6345795096    4.4838246070
H        1.7570959816    0.9756910082    1.9436828450
H        1.0742448766   -0.4873574395    1.0013466391
H       -7.2249057762   -0.6326192490    0.9343164278
H       -6.2734820247   -2.1278839945    1.1221128817
H       -7.3666240818   -1.9375754934   -0.2682053166
H        0.3582030344   -1.2741358243    4.4121351460
H       -1.4180566865   -1.2721688977    4.2505886546
H       -0.4031745318   -2.1087347019    3.0339801731
27   

C       -4.2214548827    0.4386142902    1.3291736674
C       -3.1124549210   -1.3531654813    0.1398591527
C       -3.0550987190    0.6788503743    2.0595355538
C       -1.9386246209   -1.0973499858    0.8599554420
C       -4.2548099593   -0.5660383003    0.3514405747
C       -1.8994450557   -0.0843650630    1.8361022721
C       -0.5179416638    1.5383999800    3.8281542138
C        0.9770095850    0.3175412713    1.7912995268
C       -5.5109527480   -0.9022391278   -0.4071604098
C       -6.7359247782   -1.2563795636    0.4126320418
C       -0.4141406729   -1.2640395575    3.6755604311
O       -5.4753180114   -1.1661989828   -1.6015909348
S       -0.3635206712    0.2863340964    2.7566354141
H       -5.1000810459    1.0452928155    1.5200414441
H       -3.1297103489   -2.1437912433   -0.6040754139
H       -3.0441015728    1.4774754690    2.7955528842
H       -1.0515165436   -1.6874515514    0.6519821414
H        0.2296568093    2.3199725705    3.8490476419
H       -1.3472870729    1.5751393387    4.5209002872
H        1.7313519357    1.0764688300    1.9514155231
H        1.0960501994   -0.3920938454    0.9847536190
H       -7.2494105290   -0.3438508331    0.7251109847
H       -6.4423340168   -1.8273027794    1.2974925026
H       -7.4216096733   -1.8625207266   -0.1862765155
H        0.4212381619   -1.2751318111    4.3784470252
H       -1.3550228041   -1.3270628188    4.2251707925
H       -0.3203668957   -2.1037328488    2.9859101657
27   

C       -4.2961854179    0.3516052028    1.3414197067
C       -3.1272404915   -1.3842180745    0.1243676548
C       -3.1325874666    0.6314712134    2.0621811192
C       -1.9577015681   -1.0869058739    0.8350602700
C       -4.3010067146   -0.6484120983    0.3566431149
C       -1.9499287699   -0.0832556053    1.8212023514
C       -0.6203619519    1.5624663771    3.8290461445
C        0.9055621523    0.4437471185    1.7570602592
C       -5.5420513108   -1.0362612518   -0.3973081660
C       -6.8409699635   -1.1209980262    0.3814338932
C       -0.3964274028   -1.2301035014    3.6259206999
O       -5.4769442163   -1.5054381028   -1.5262965724
S       -0.4223254436    0.3368786426    2.7343155475
H       -5.1934962639    0.9241657664    1.5491534264
H       -3.1166212236   -2.1705047062   -0.6244915480
H       -3.1456419432    1.4230329177    2.8057792840
H       -1.0498417606   -1.6390312823    0.6128599657
H        0.0925734022    2.3755601169    3.8568870374
H       -1.4432167585    1.5503191359    4.5303737325
H        1.6276688906    1.2320932279    1.9234800980
H        1.0472214467   -0.2462097921    0.9371848825
H       -7.2846610688   -0.1265103706    0.4728021646
H       -6.6555431552   -1.5299473863    1.3782105688
H       -7.5443241669   -1.7758167839   -0.1409505117
H        0.4443739206   -1.2163564219    4.3222568118
H       -1.3290285032   -1.3447323950    4.1812956313
H       -0.2710831663   -2.0527576403    2.9209108916
27   

C       -4.2787099365    0.2829968514    1.3649739674
C       -3.0656867710   -1.3854433415    0.0992538722
C       -3.1222108283    0.5729420132    2.0928883869
C       -1.9038174202   -1.0768772893    0.8177262479
C       -4.2621715046   -0.6938405679    0.3547484390
C       -1.9217278674   -0.1029498163    1.8324563987
C       -0.6370783305    1.5197891009    3.8864743693
C        0.9174272136    0.5027846157    1.7836414730
C       -5.4874695608   -1.0830761863   -0.4210336051
C       -6.8421701634   -0.9075195046    0.2405136241
C       -0.3378424395   -1.2600004556    3.6038928892
O       -5.4039916288   -1.6947984045   -1.4787118199
S       -0.4056316510    0.3309765423    2.7581762616
H       -5.1855495494    0.8324779243    1.5917374010
H       -3.0296861251   -2.1498159429   -0.6712358953
H       -3.1552631949    1.3432603546    2.8578799165
H       -0.9816522554   -1.5975110299    0.5790379439
H        0.0515592533    2.3525796269    3.9355352204
H       -1.4572867252    1.4637757912    4.5887942753
H        1.6160619513    1.3075087019    1.9705821804
H        1.0787708409   -0.1611991174    0.9461537085
H       -7.1632249184    0.1339905981    0.1582845547
H       -6.7879511431   -1.1927764999    1.2944865471
H       -7.5804676042   -1.5446947721   -0.2549329637
H        0.5021872509   -1.2441146521    4.3011086019
H       -1.2671312076   -1.4156831619    4.1548435635
H       -0.1906218088   -2.0581880838    2.8753667659
27   

C       -4.2962966478    0.1854995120    1.4149333843
C       -3.0580998122   -1.4288913767    0.1066182327
C       -3.1352459987    0.5018293315    2.1242749323
C       -1.8925465582   -1.0932515447    0.8066049172
C       -4.2734160238   -0.7826666104    0.3939489345
C       -1.9203058767   -0.1332886855    1.8335248299
C       -0.6487520455    1.5038523231    3.8829617515
C        0.8951088712    0.5650863536    1.7364879087
C       -5.4960897906   -1.1869897160   -0.3779003455
C       -6.8562215643   -0.7616630620    0.1442899676
C       -0.2655902248   -1.2622489851    3.5577418355
O       -5.4240101246   -1.9285553506   -1.3501055216
S       -0.4007902850    0.3367468254    2.7356282664
H       -5.2095020431    0.7107382688    1.6702787711
H       -3.0095149979   -2.1816702237   -0.6745110285
H       -3.1768319367    1.2622688702    2.8986914477
H       -0.9596124476   -1.5817847091    0.5431928277
H        0.0112548413    2.3597662541    3.9273518107
H       -1.4508243242    1.4108172684    4.6021225190
H        1.5688624354    1.3919225874    1.9181945460
H        1.0624352904   -0.0842775701    0.8887806294
H       -6.9989641684    0.3098711733   -0.0178041158
H       -6.9398018779   -0.9891060294    1.2102686047
H       -7.6419545578   -1.3049516327   -0.3887358248
H        0.5870545374   -1.2286497622    4.2388154376
H       -1.1784590836   -1.4550399128    4.1242175189
H       -0.1074891073   -2.0456092473    2.8155244812
27   

C       -4.3245497451    0.0955211433    1.5115962349
C       -3.0507774419   -1.4597438246    0.1661995464
C       -3.1613644376    0.4574027618    2.1949863475
C       -1.8842513843   -1.0781735872    0.8406441825
C       -4.2860644653   -0.8679406952    0.4859563786
C       -1.9280762937   -0.1243608092    1.8725834035
C       -0.6794621426    1.5609068431    3.8959891853
C        0.8525855572    0.6891753001    1.7130507662
C       -5.5055591273   -1.3108677551   -0.2699716271
C       -6.8432210348   -0.6783921397    0.0675495393
C       -0.1909590709   -1.1878535221    3.5560884050
O       -5.4431344121   -2.1685683629   -1.1422999224
S       -0.4090799388    0.4057992241    2.7415530927
H       -5.2515262129    0.5799819100    1.7956672809
H       -2.9876163523   -2.2059582702   -0.6201593772
H       -3.2167814050    1.2116489321    2.9745686457
H       -0.9380251338   -1.5258107703    0.5530787621
H       -0.0562839470    2.4446173168    3.9254769055
H       -1.4590185787    1.4330004579    4.6343148394
H        1.4938778018    1.5445322107    1.8795871087
H        1.0288905082    0.0467064988    0.8619316730
H       -6.8021414908    0.4001161814   -0.1061359393
H       -7.0993657032   -0.8766874064    1.1115487065
H       -7.6236357713   -1.1043598972   -0.5697976295
H        0.6746343607   -1.1211125386    4.2181080900
H       -1.0824418917   -1.4184598924    4.1421822353
H       -0.0181999235   -1.9628259097    2.8083421332
