17   
Generated by ForceBalance from scan.xyz: Frame 1 of 24
C        5.6256553765    1.3846102687   -0.2399645660
C        4.2514806687    1.5949186073   -0.3433128605
C        6.0270786980    0.0642659061   -0.0140736740
C        3.8550533496   -0.6178609691   -0.0207567826
C        1.6066833973   -1.8116932453    0.2111160690
C        0.7401262777   -0.6233039355   -0.1262153186
N        3.3550000027    0.6066743737   -0.2375849628
N        5.1593376136   -0.9426340446    0.0976702571
N        2.9997408973   -1.7058994598    0.0935840105
O        1.1468924454   -2.8868544678    0.5746773689
H        6.3399653997    2.1959059686   -0.3285056255
H        3.8451978354    2.5903119586   -0.5178805580
H        7.0801208351   -0.1967807699    0.0820575300
H       -0.2980905212   -0.9544455028   -0.0888680539
H        0.9843574603   -0.2208136080   -1.1114629181
H        0.9042936363    0.1871787633    0.5877430136
H        3.4800294251   -2.5697710114    0.3298271763
17   
Generated by ForceBalance from scan.xyz: Frame 2 of 24
C        5.6294512478    1.3798064899   -0.2190987094
C        4.2562179618    1.5967387856   -0.3230003908
C        6.0269410114    0.0513067582   -0.0399758774
C        3.8544166174   -0.6259337388   -0.0865982444
C        1.6117026888   -1.7836609563    0.2334500267
C        0.7296245591   -0.6316775742   -0.1805821328
N        3.3575773434    0.6067948249   -0.2613298704
N        5.1565970536   -0.9576495690    0.0286988033
N        2.9921543565   -1.7157166827   -0.0268887375
O        1.1792041253   -2.7940298845    0.7709358305
H        6.3457664867    2.1924326149   -0.2723088538
H        3.8528459724    2.5988987497   -0.4619600432
H        7.0787842293   -0.2152424008    0.0539891564
H       -0.3052216099   -0.9716137933   -0.1253206444
H        0.9741377400   -0.2790634859   -1.1842918341
H        0.8781593200    0.2160693192    0.4928233180
H        3.4717127259   -2.5693390125    0.2477272592
17   
Generated by ForceBalance from scan.xyz: Frame 3 of 24
C        5.6338756808    1.3761823153   -0.2059346536
C        4.2587923126    1.5951233723   -0.2804233438
C        6.0352881594    0.0429694529   -0.0808173349
C        3.8635996481   -0.6355145043   -0.1186880933
C        1.6410643286   -1.7528947960    0.3137254208
C        0.7196340995   -0.6721125444   -0.1952446432
N        3.3623035184    0.6022687952   -0.2409462369
N        5.1667499599   -0.9694886185   -0.0353795783
N        2.9960096385   -1.7256509755   -0.0891200268
O        1.2707527676   -2.6607164449    1.0425462024
H        6.3485995628    2.1912511531   -0.2398516131
H        3.8526921407    2.6012981494   -0.3755697918
H        7.0886068815   -0.2253168937   -0.0116907106
H       -0.3049559631   -1.0387848917   -0.1157532406
H        0.9580667510   -0.3869326084   -1.2212551597
H        0.8339499155    0.2246797328    0.4190601241
H        3.4819973708   -2.5653704019    0.2181226583
17   
Generated by ForceBalance from scan.xyz: Frame 4 of 24
C        5.6500771596    1.3817072301   -0.1678452605
C        4.2748279050    1.6077065187   -0.2217391544
C        6.0485558069    0.0434463366   -0.1073739292
C        3.8758147890   -0.6276668411   -0.1616605466
C        1.6700475699   -1.6932097424    0.3387818989
C        0.7007061579   -0.7025986271   -0.2559925065
N        3.3762784480    0.6162529007   -0.2222941077
N        5.1775135630   -0.9685845989   -0.1027035665
N        2.9956937199   -1.7107905846   -0.1818338692
O        1.3782904242   -2.4707791401    1.2314226767
H        6.3669015356    2.1956265208   -0.1682262203
H        3.8711208779    2.6183671187   -0.2659316518
H        7.1015371363   -0.2303555054   -0.0574800260
H       -0.3111656012   -1.0921213823   -0.1294814255
H        0.9183716496   -0.5050017181   -1.3067550655
H        0.7892030047    0.2465267418    0.2791985743
H        3.4816064043   -2.5465301450    0.1387964436
17   
Generated by ForceBalance from scan.xyz: Frame 5 of 24
C        5.7670931065    1.4480643220   -0.1597733374
C        4.3971838988    1.7104112018   -0.1601236737
C        6.1321347684    0.1007486226   -0.2268608311
C        3.9425888088   -0.5131405450   -0.2887799800
C        1.7293549234   -1.5168627190    0.2310501084
C        0.7002047204   -0.6749992102   -0.4728330588
N        3.4748758338    0.7436565022   -0.2270619236
N        5.2361583022   -0.8875650655   -0.2895430374
N        3.0297465403   -1.5667169604   -0.3853901051
O        1.5225171287   -2.1607217995    1.2414997837
H        6.5044066180    2.2415385100   -0.1047278907
H        4.0179527789    2.7298617545   -0.1035679877
H        7.1787238619   -0.2008779440   -0.2264209368
H       -0.2012068223   -0.6091263259    0.1371144439
H        0.4635117965   -1.1416610069   -1.4356223547
H        1.1087524206    0.3168632870   -0.6760395669
H        3.5016259904   -2.4243538174   -0.1022095797
17   
Generated by ForceBalance from scan.xyz: Frame 6 of 24
C        5.5894845622    1.2738640056    0.1026929088
C        4.2224373341    1.5528770663    0.1236922292
C        5.9379385571   -0.0715697711   -0.0423237564
C        3.7428586761   -0.6544274596   -0.1312209415
C        1.5157857644   -1.5456983358    0.3759282669
C        0.4562894089   -0.8462127722   -0.4274268888
N        3.2887100422    0.6028004170    0.0062767377
N        5.0302866101   -1.0451750638   -0.1581424827
N        2.8009022903   -1.6722304832   -0.2939964428
O        1.3667012944   -1.9868527374    1.4956632110
H        6.3367823736    2.0537920298    0.2005936172
H        3.8564856201    2.5720178176    0.2410063514
H        6.9810412050   -0.3845057445   -0.0625908386
H       -0.4469545890   -0.7170674535    0.1696536964
H        0.2366023393   -1.4360915548   -1.3239130953
H        0.8436019981    0.1216701168   -0.7567072029
H        3.2378520579   -2.5543318173   -0.0299881643
17   
Generated by ForceBalance from scan.xyz: Frame 7 of 24
C        5.6119696580    1.2224744735    0.2754637700
C        4.3983234708    1.4852185906    0.9139219748
C        5.7355147654   -0.0403206944   -0.3089480532
C        3.6518895832   -0.5958795492    0.4123218806
C        1.2902965125   -1.2888919445    0.7308935361
C        0.3874170911   -1.5109404717   -0.4667630335
N        3.4097436755    0.5884509677    0.9901793862
N        4.7664420906   -0.9586215719   -0.2525666516
N        2.6719395323   -1.5873823701    0.4853764641
O        0.8859070746   -0.9784912739    1.8284591444
H        6.4065122439    1.9591232540    0.2249705897
H        4.2036298067    2.4504781852    1.3797259227
H        6.6387574827   -0.3286020786   -0.8451360505
H       -0.6554071197   -1.4029516123   -0.1678632049
H        0.5428080492   -2.5086574180   -0.8933779372
H        0.6260789238   -0.7810869271   -1.2483746978
H        2.8203643726   -2.2607407347   -0.2612084719
17   
Generated by ForceBalance from scan.xyz: Frame 8 of 24
C        5.6994254073    1.2087580099    0.3392724142
C        4.5121843322    1.4827801483    1.0210754542
C        5.7523985227   -0.0163187709   -0.3294518363
C        3.6537085444   -0.5165140801    0.3919467351
C        1.2602957486   -1.1892914931    0.6585791125
C        0.3255641263   -1.6671508656   -0.4391964679
N        3.4830436913    0.6300111958    1.0596659780
N        4.7390052580   -0.8871837987   -0.3162108223
N        2.6294289130   -1.4690079147    0.3965654925
O        0.8748117357   -0.7090123159    1.7029882878
H        6.5281032593    1.9085191423    0.3228900733
H        4.3743273736    2.4202207175    1.5585060173
H        6.6322533152   -0.3120546503   -0.8992908182
H       -0.7065822610   -1.5744803098   -0.1014217939
H        0.5285998849   -2.7120220971   -0.7006512717
H        0.4713292542   -1.0665679859   -1.3438896646
H        2.7849430158   -2.1289574209   -0.3596987787
17   
Generated by ForceBalance from scan.xyz: Frame 9 of 24
C        5.7333996184    1.1910793493    0.3857713242
C        4.5561828967    1.4700990194    1.0822631535
C        5.7424692042    0.0041411117   -0.3506095181
C        3.6203076225   -0.4499382953    0.3330863404
C        1.2020428755   -1.1062176046    0.5450811978
C        0.2580094276   -1.7861259475   -0.4347552335
N        3.4940043335    0.6573837810    1.0708081119
N        4.6949986394   -0.8239152432   -0.3904846296
N        2.5617676432   -1.3616394042    0.2641576864
O        0.8207169132   -0.4814473936    1.5138434044
H        6.5888769782    1.8576151619    0.4114451189
H        4.4544873172    2.3774199239    1.6764635394
H        6.6138337963   -0.2947085987   -0.9316995862
H       -0.7606788404   -1.7183424167   -0.0534949369
H        0.5225863809   -2.8399999879   -0.5761372200
H        0.3130083172   -1.2949548788   -1.4126200518
H        2.7309779157   -2.0294536502   -0.4811773917
17   
Generated by ForceBalance from scan.xyz: Frame 10 of 24
C        5.7859823388    1.1859243716    0.4386631951
C        4.6070436593    1.4652102018    1.1317111087
C        5.7723392032    0.0360739273   -0.3545370434
C        3.6239803172   -0.3818302150    0.2699642239
C        1.1914092277   -1.0388375871    0.4462220175
C        0.2511116953   -1.8814288201   -0.4043412141
N        3.5200510075    0.6885146342    1.0629052132
N        4.7007453535   -0.7549298191   -0.4520426523
N        2.5428036382   -1.2561328507    0.1298472668
O        0.8061107337   -0.3024277036    1.3328703421
H        6.6606958805    1.8235148637    0.5108812767
H        4.5242670888    2.3427070081    1.7718838100
H        6.6448897709   -0.2623428527   -0.9340488728
H       -0.7429749698   -1.8589211602    0.0416478280
H        0.5928090737   -2.9193429246   -0.4797063166
H        0.1968079326   -1.4712811479   -1.4189949466
H        2.7271625972   -1.9413145271   -0.5948615396
17   
Generated by ForceBalance from scan.xyz: Frame 11 of 24
C        5.8297987977    1.1795402533    0.4862096956
C        4.6398442670    1.4681847216    1.1559802666
C        5.8049754168    0.0624619522   -0.3524652731
C        3.6255025213   -0.3084961149    0.1901923999
C        1.1881312408   -0.9802450247    0.3621592612
C        0.2591769243   -1.9469773718   -0.3607158622
N        3.5305733958    0.7323834975    1.0223116487
N        4.7129177262   -0.6889266250   -0.5126485110
N        2.5254349960   -1.1410657251   -0.0205056564
O        0.7979630643   -0.1761173183    1.1867174439
H        6.7211838914    1.7854208350    0.6096676210
H        4.5656919164    2.3203646472    1.8304975024
H        6.6856291079   -0.2417966508   -0.9164824665
H       -0.7032569921   -1.9545674528    0.1504548056
H        0.6655332285   -2.9634550928   -0.3884515528
H        0.1079533674   -1.6152765068   -1.3940702019
H        2.7221343203   -1.8532080700   -0.7144589495
17   
Generated by ForceBalance from scan.xyz: Frame 12 of 24
C        5.8757998156    1.2241451382    0.5869782999
C        4.6695398387    1.5105599405    1.2277952795
C        5.8525077301    0.1559943786   -0.3133317290
C        3.6449637146   -0.1814277259    0.1293694834
C        1.2239414315   -0.9169615993    0.3217495010
C        0.3358978366   -1.9860753975   -0.3025349572
N        3.5455857980    0.8182699988    1.0101268350
N        4.7482031904   -0.5551391803   -0.5526265580
N        2.5321332232   -0.9663977326   -0.1708062439
O        0.8260417991   -0.1209165106    1.1507256872
H        6.7777793557    1.7965806540    0.7757859706
H        4.5928859361    2.3264970148    1.9454885006
H        6.7452110461   -0.1418385287   -0.8616444414
H       -0.6642993730   -1.8978528549    0.1203983775
H        0.7269157761   -2.9886499242   -0.0972842542
H        0.2799546782   -1.8621254856   -1.3895689429
H        2.7452855918   -1.6822203660   -0.8558991455
17   
Generated by ForceBalance from scan.xyz: Frame 13 of 24
C        5.8165574503    1.1552811550    0.5556894345
C        4.6147311988    1.4736336254    1.1897908404
C        5.7568438370    0.1295684064   -0.3909938990
C        3.5287958320   -0.1186500614    0.0047881470
C        1.1283798072   -0.8811912767    0.2748729915
C        0.2765007876   -2.0373577078   -0.2327910055
N        3.4616374445    0.8502134615    0.9221792104
N        4.6240010886   -0.5174840669   -0.6753513563
N        2.3816816932   -0.8315536591   -0.3480142172
O        0.7429726626   -0.0912737719    1.1152018923
H        6.7417827094    1.6744281077    0.7822829677
H        4.5654055417    2.2613580514    1.9406166484
H        6.6429921898   -0.1873172913   -0.9392294045
H       -0.7510274139   -1.8847787804    0.0965445759
H        0.6443546601   -2.9824240668    0.1823207809
H        0.3019049719   -2.1155384977   -1.3247420722
H        2.5879000492   -1.5586794021   -1.0235235593
17   
Generated by ForceBalance from scan.xyz: Frame 14 of 24
C        5.8203905281    1.1044279544    0.6009312845
C        4.6187016138    1.4219609519    1.2359825208
C        5.7457488792    0.1330317058   -0.4002835642
C        3.5048050847   -0.0655970455   -0.0547172246
C        1.1036295533   -0.8084730169    0.2002718935
C        0.3351726207   -2.0710086288   -0.1639879411
N        3.4521054110    0.8507560902    0.9162136181
N        4.5988470833   -0.4624108279   -0.7371929703
N        2.3398883945   -0.7209641859   -0.4612953704
O        0.6637768001    0.0466883448    0.9433293832
H        6.7567236833    1.5822829824    0.8688782698
H        4.5812841696    2.1651027501    2.0315946686
H        6.6314121884   -0.1825506077   -0.9500674204
H       -0.6988657967   -1.9609459672    0.1620770830
H        0.7789417229   -2.9353806866    0.3426294284
H        0.3585363462   -2.2653810613   -1.2416281620
H        2.5544800081   -1.4729723553   -1.1069852181
17   
Generated by ForceBalance from scan.xyz: Frame 15 of 24
C        5.7841791364    1.0397847134    0.6214350464
C        4.5830914043    1.3680792766    1.2526266033
C        5.6948125608    0.1156071349   -0.4221459299
C        3.4429718847   -0.0196466222   -0.1250977709
C        1.0432356142   -0.7263796140    0.1308836282
C        0.3675038431   -2.0736079410   -0.0737750104
N        3.4044949012    0.8519233223    0.8874496890
N        4.5347999072   -0.4252828435   -0.8046177931
N        2.2579778486   -0.6082822568   -0.5786846464
O        0.5456967206    0.1789356727    0.7689250426
H        6.7310589110    1.4732221374    0.9252774729
H        4.5569158333    2.0733125967    2.0824512506
H        6.5793561526   -0.2072427474   -0.9695075365
H       -0.6446007962   -2.0293345166    0.3279288014
H        0.9294557434   -2.8587911743    0.4441093048
H        0.3245629446   -2.3401639475   -1.1357218999
H        2.4737373083   -1.3828251589   -1.1980858857
17   
Generated by ForceBalance from scan.xyz: Frame 16 of 24
C        5.7772449651    0.9897563727    0.6543275457
C        4.5711296493    1.3007080806    1.2852603615
C        5.6895456409    0.1338761506   -0.4459374473
C        3.4298571165    0.0318616360   -0.2039370951
C        1.0266842012   -0.6203249548    0.0232380406
C        0.4658052020   -2.0318753123    0.0120150220
N        3.3904947987    0.8331376500    0.8665409585
N        4.5264266708   -0.3558793326   -0.8850758116
N        2.2349857959   -0.4863834403   -0.7139625286
O        0.4524334866    0.3234365332    0.5228584943
H        6.7265584617    1.3825819385    1.0023670840
H        4.5435394188    1.9485525836    2.1605718678
H        6.5784289128   -0.1754984722   -0.9941113195
H       -0.5339330418   -2.0275140948    0.4461947967
H        1.1148459361   -2.6980890466    0.5910898517
H        0.4153401686   -2.4263457084   -1.0093457750
H        2.4453753473   -1.2736803283   -1.3202231864
17   
Generated by ForceBalance from scan.xyz: Frame 17 of 24
C        5.7285853460    0.9057779937    0.7041715687
C        4.5119007727    1.1657412486    1.3379566274
C        5.6597282950    0.1426836614   -0.4638994663
C        3.3959745270    0.0336242347   -0.2784948165
C        0.9951576506   -0.5645023112   -0.0861026172
C        0.5787733100   -2.0053088383    0.1366204625
N        3.3391149347    0.7367546318    0.8606242993
N        4.5046275417   -0.3028989727   -0.9666681103
N        2.2024278264   -0.4152465942   -0.8465575945
O        0.3317842580    0.3872153741    0.2585189509
H        6.6721240399    1.2638340377    1.1016947499
H        4.4697562009    1.7349037835    2.2657942586
H        6.5589357625   -0.1264512046   -1.0165737560
H       -0.4115549867   -2.0371731520    0.5912860124
H        1.3033090967   -2.5009689313    0.7923169097
H        0.5633374497   -2.5582429804   -0.8097443382
H        2.3988891957   -1.1986365631   -1.4634563399
17   
Generated by ForceBalance from scan.xyz: Frame 18 of 24
C        5.8020497665    0.7459843095    0.7730395949
C        4.6853965269    0.3905085961    1.5307851277
C        5.7401625428    0.4415578620   -0.5892701337
C        3.6705192912   -0.4579030389   -0.3178696758
C        1.2563342290   -0.8818952832   -0.3675731494
C        0.8468834088   -1.8181124587    0.7337469008
N        3.6150632985   -0.2120365883    1.0024456826
N        4.6846712264   -0.1564069567   -1.1493578387
N        2.5888115513   -1.1192104451   -0.9016366651
O        0.5725646773    0.0147552857   -0.8134371681
H        6.6633090782    1.2360758941    1.2139051505
H        4.6404474494    0.5959486015    2.5994929308
H        6.5623523197    0.6881497243   -1.2597960097
H       -0.1141177239   -1.5145490355    1.1501210548
H        1.6207068683   -1.8191215834    1.5057489066
H        0.7793802889   -2.8351645748    0.3320538208
H        2.5967852274   -0.9212386353   -1.9013731626
17   
Generated by ForceBalance from scan.xyz: Frame 19 of 24
C        5.8039939258    0.7080334390    0.7926078724
C        4.7052293348    0.3030810519    1.5502845011
C        5.7136776520    0.4838147569   -0.5838921343
C        3.6507063381   -0.4379193204   -0.3220025323
C        1.2150018593   -0.9159757848   -0.4592732739
C        0.8690659054   -1.7258405743    0.7603399872
N        3.6253716717   -0.2728922502    1.0098531446
N        4.6480142148   -0.0834147314   -1.1547220425
N        2.5630761868   -1.0559236911   -0.9448307218
O        0.4374180680   -0.1948507080   -1.0542465758
H        6.6733473066    1.1739412272    1.2436372196
H        4.6821934979    0.4431054084    2.6301638075
H        6.5207112228    0.7716173417   -1.2563382666
H       -0.1403682157   -1.4799488449    1.0911030288
H        1.5977060630   -1.5304426497    1.5499546016
H        0.9309317662   -2.7902443480    0.5082149179
H        2.5908150683   -0.8219224525   -1.9362027037
17   
Generated by ForceBalance from scan.xyz: Frame 20 of 24
C        5.9674614372    0.5474180699    0.8710216642
C        4.8516246278    0.1104127969    1.5845963960
C        5.8790584558    0.4541502003   -0.5207080883
C        3.7855313189   -0.4187749189   -0.3501583947
C        1.3368773973   -0.8692457833   -0.5793098055
C        1.0129467980   -1.5228984484    0.7407273329
N        3.7560932659   -0.3769494462    0.9907103466
N        4.7993785910   -0.0239124926   -1.1441122712
N        2.6849045858   -0.9372099169   -1.0342131411
O        0.5118553752   -0.2937452848   -1.2682758277
H        6.8488647022    0.9402161344    1.3661376786
H        4.8277204327    0.1497481373    2.6728283063
H        6.6990099569    0.7759978795   -1.1612708671
H       -0.0418170694   -1.8040575546    0.7364270183
H        1.1896375537   -0.8048585210    1.5458768166
H        1.6504858171   -2.3877880518    0.9306464710
H        2.7338038321   -0.6586786454   -2.0126724844
17   
Generated by ForceBalance from scan.xyz: Frame 21 of 24
C        5.9654997887    0.5057574463    0.8749257205
C        4.8551841898    0.0480818636    1.5834941785
C        5.8575198671    0.4746290115   -0.5184909320
C        3.7566239246   -0.3844847044   -0.3566691081
C        1.3021896121   -0.9139646477   -0.6223113318
C        1.0167795688   -1.4542136815    0.7571265387
N        3.7463613463   -0.4017917345    0.9842095870
N        4.7649218709    0.0350716131   -1.1465967466
N        2.6465641616   -0.8544088879   -1.0559071173
O        0.4279989291   -0.5417961093   -1.3902537456
H        6.8577109382    0.8669824562    1.3747187970
H        4.8464942091    0.0383783397    2.6726174028
H        6.6723659849    0.8157487879   -1.1555931948
H       -0.0246013752   -1.7789370885    0.7822627319
H        1.1698556156   -0.6648923581    1.4975436256
H        1.6911543184   -2.2710727463    1.0194870342
H        2.6991170417   -0.5888747697   -2.0369468812
17   
Generated by ForceBalance from scan.xyz: Frame 22 of 24
C        5.9675773429    0.4929147227    0.8809715677
C        4.8690456426    0.0081775997    1.5894086100
C        5.8378060395    0.5115371758   -0.5110798980
C        3.7397725370   -0.3556788750   -0.3470646408
C        1.2963725652   -1.0039107092   -0.6336123564
C        1.0327056692   -1.4291999398    0.7898201944
N        3.7510846956   -0.4212177640    0.9918059176
N        4.7361791459    0.0936520680   -1.1371785919
N        2.6234276224   -0.7959112916   -1.0503839752
O        0.4060731098   -0.8496628740   -1.4584556649
H        6.8675076291    0.8362649537    1.3795056369
H        4.8775813735   -0.0420687619    2.6774093016
H        6.6427856679    0.8755444236   -1.1480719333
H       -0.0004787517   -1.7740888799    0.8454868896
H        1.1788954299   -0.5844254495    1.4674618235
H        1.7251362185   -2.2096705450    1.1106958443
H        2.6780076791   -0.5654754571   -2.0393134454
17   
Generated by ForceBalance from scan.xyz: Frame 23 of 24
C        5.9734043595    0.4733606430    0.8885188065
C        4.8717848798   -0.0124965360    1.5911168833
C        5.8324442699    0.5382128931   -0.5012296598
C        3.7186633384   -0.2928210137   -0.3452052874
C        1.2914666499   -1.0319514915   -0.6559680050
C        1.0245602699   -1.3738264881    0.7893227098
N        3.7400692519   -0.4000347240    0.9906855758
N        4.7179255716    0.1614773984   -1.1299005243
N        2.5888920444   -0.6798858105   -1.0539077331
O        0.4209761100   -1.0607507591   -1.5167653134
H        6.8841390378    0.7830683669    1.3894403582
H        4.8887387266   -0.0980246999    2.6768172848
H        6.6393928390    0.9057197895   -1.1337302894
H       -0.0022680103   -1.7345779904    0.8558508264
H        1.1580034479   -0.4942091532    1.4233849725
H        1.7254542751   -2.1270507856    1.1550567840
H        2.6550105409   -0.4868661397   -2.0494646478
17   
Generated by ForceBalance from scan.xyz: Frame 24 of 24
C        5.6505720883    1.4118846545   -0.2728418250
C        4.2756056100    1.6195931147   -0.3701967402
C        6.0534815610    0.0990391692   -0.0086539860
C        3.8815662497   -0.5817058502    0.0259536871
C        1.6350932965   -1.8024872589    0.1557834486
C        0.7706433544   -0.5942247174   -0.1085978362
N        3.3798871599    0.6358941941   -0.2234767495
N        5.1869087408   -0.9035126028    0.1424361918
N        3.0281029377   -1.6634479442    0.1904934857
O        1.1718728754   -2.9206735031    0.3441043135
H        6.3643235493    2.2194014063   -0.3942003359
H        3.8678893580    2.6091098814   -0.5725840240
H        7.1072947832   -0.1594262237    0.0858926080
H       -0.2678979359   -0.9254382687   -0.0859280999
H        1.0084752894   -0.1488769268   -1.0774474523
H        0.9435475523    0.1833059656    0.6383543221
H        3.5099794039   -2.5377552155    0.3794050127
