17   
Generated by ForceBalance from scan.xyz: Frame 1 of 24
C        4.6765284147    1.5381383755    1.1484617992
C        3.3460282723    1.2019969588    0.7806729678
C        5.5271289163    0.8816657315    0.2651545448
C        3.4208617690    0.3477944076   -0.3184214328
C        2.4407562671   -0.3576059842   -1.1628316747
C        0.0940302708   -1.0581207229   -1.3945301096
N        4.7546147254    0.1722319367   -0.6099310295
N        1.1177761955   -0.1739566039   -0.8508009908
O        2.8160373981   -1.0751166128   -2.1002142726
H        4.9836581099    2.1842268894    1.9605929056
H        2.4428805106    1.5566094257    1.2623113996
H        6.6067608006    0.8717260306    0.2027456584
H       -0.8774628014   -0.5594274032   -1.3472218181
H        0.0391640405   -2.0090844368   -0.8488076869
H        0.3353341996   -1.2730296575   -2.4357459928
H        5.0558254541   -0.4169064690   -1.3774641408
H        0.9170437064    0.2754163240    0.0328545996
17   
Generated by ForceBalance from scan.xyz: Frame 2 of 24
C        4.6485248547    1.4670974269    1.1899997700
C        3.3239954588    1.1660285229    0.7750824774
C        5.5124254899    0.8488702145    0.2917601038
C        3.4148482703    0.3725096723   -0.3681589907
C        2.4462543791   -0.2837462685   -1.2624056143
C        0.1282272178   -1.0898280933   -1.3344150256
N        4.7536678213    0.1993154696   -0.6393117991
N        1.1118078886   -0.0609076641   -1.0009054336
O        2.8346994388   -1.0227633859   -2.1759677699
H        4.9435270673    2.0624943667    2.0442438457
H        2.4142222210    1.4978920940    1.2604498290
H        6.5931184324    0.8267404609    0.2558641705
H       -0.8709626134   -0.6469430871   -1.3430315036
H        0.1492025770   -1.9230024946   -0.6195302473
H        0.3517957319   -1.4785342172   -2.3279143625
H        5.0672991757   -0.3642978719   -1.4209234263
H        0.9259902109    0.4442975278   -0.1430199428
17   
Generated by ForceBalance from scan.xyz: Frame 3 of 24
C        4.6010588473    1.3904366980    1.2351594865
C        3.2880853488    1.1205214388    0.7672645963
C        5.4873502473    0.8141208595    0.3303949250
C        3.4073965850    0.3857993018   -0.4129225388
C        2.4580785375   -0.2240658081   -1.3569471230
C        0.1758910739   -1.1090507547   -1.2307413666
N        4.7533826531    0.2203311626   -0.6553664313
N        1.1109734770    0.0167963161   -1.1382063807
O        2.8611959239   -0.9715929014   -2.2552551007
H        4.8745828396    1.9359801213    2.1288903319
H        2.3662155958    1.4260407426    1.2469035540
H        6.5685142737    0.7846820763    0.3262443887
H       -0.8475300208   -0.7271490955   -1.2674036805
H        0.2765169010   -1.7950019391   -0.3789763740
H        0.3774692620   -1.6586782603   -2.1504105687
H        5.0878117484   -0.3117614492   -1.4503059740
H        0.9402774078    0.6032101006   -0.3286153239
17   
Generated by ForceBalance from scan.xyz: Frame 4 of 24
C        4.5422586835    1.3091857025    1.2525041200
C        3.2428596281    1.0772407505    0.7314417741
C        5.4515666847    0.7695815555    0.3472432221
C        3.3922424375    0.4009215717   -0.4807184735
C        2.4623150121   -0.1512151059   -1.4751296300
C        0.2344155895   -1.0919566178   -1.1278005224
N        4.7446080465    0.2342866132   -0.6895644208
N        1.1000543224    0.0874359739   -1.2805016526
O        2.8769014792   -0.8788400956   -2.3819218390
H        4.7928726773    1.8046538154    2.1813844522
H        2.3084270702    1.3636735606    1.1981187899
H        6.5319886938    0.7275284520    0.3767450621
H       -0.8116778769   -0.7763621544   -1.1556768789
H        0.4268276382   -1.6251496108   -0.1867337625
H        0.4133667406   -1.7709119129   -1.9623454763
H        5.1006977216   -0.2622957930   -1.4979104670
H        0.9505455477    0.7470699425   -0.5228249710
17   
Generated by ForceBalance from scan.xyz: Frame 5 of 24
C        4.4666288866    1.0325983151    1.3687311380
C        3.1724683659    0.7968985824    0.8381221851
C        5.3827823161    0.7575566061    0.3569175990
C        3.3309263016    0.3824593747   -0.4862055786
C        2.4055301343   -0.0489752202   -1.5398527979
C        0.3925903572   -1.3003345927   -0.9941026728
N        4.6847666264    0.3747074132   -0.7504312537
N        1.0259459570    0.0058176291   -1.2573981552
O        2.8340617224   -0.5514857053   -2.5797843050
H        4.7109274386    1.3584332901    2.3713397490
H        2.2346864934    0.9054046646    1.3687184907
H        6.4635279964    0.8033202564    0.3566867667
H        0.5607987760   -1.9549972239   -1.8508721769
H       -0.6846147267   -1.1555187396   -0.8785914301
H        0.7911619439   -1.7846630482   -0.0914397853
H        5.0518980189    0.0749830050   -1.6460087416
H        0.8667879360    0.6198999939   -0.4620782666
17   
Generated by ForceBalance from scan.xyz: Frame 6 of 24
C        4.5653326581    0.6967768864    1.3074709891
C        3.2302253367    0.6165913465    0.8396362451
C        5.4008402696    0.5191049625    0.2057551197
C        3.2829654184    0.3916382090   -0.5364217506
C        2.2532218069    0.2264156186   -1.5522149177
C        0.4051878232   -1.1125583251   -0.7037642453
N        4.6162747869    0.3305407609   -0.8938425493
N        0.9128350241    0.2299675393   -1.0692821030
O        2.5239986456    0.2128180293   -2.7558097687
H        4.8928043352    0.8743267556    2.3236424965
H        2.3206539800    0.7320238847    1.4134481397
H        6.4803823791    0.5219998517    0.1356493803
H        1.0018107073   -1.5181515243    0.1174072204
H        0.4380234254   -1.8194257913   -1.5440569557
H       -0.6270701147   -1.0158894561   -0.3570947622
H        4.9161031360    0.2027172363   -1.8525947009
H        0.3569270872    0.5520940419   -1.8627002883
17   
Generated by ForceBalance from scan.xyz: Frame 7 of 24
C        4.5269881381    0.6249771138    1.3013364148
C        3.1970538711    0.5503116203    0.8151469179
C        5.3759003692    0.5053161498    0.2032732214
C        3.2667871493    0.3857374569   -0.5680537768
C        2.2604962708    0.2824996598   -1.6231481999
C        0.4539341161   -1.0605593240   -0.6250804409
N        4.6035906259    0.3555265038   -0.9116576476
N        0.9175111813    0.2180384451   -1.2016200842
O        2.5702350361    0.3861502625   -2.8147011098
H        4.8400698310    0.7602848311    2.3284900542
H        2.2842689760    0.6352601871    1.3896021118
H        6.4558914590    0.5207533594    0.1445360931
H        1.0722915802   -1.3269572759    0.2340054191
H        0.4928245298   -1.8842002047   -1.3508018275
H       -0.5759191197   -0.9398506900   -0.2787678506
H        4.9116676855    0.2928276126   -1.8744131978
H        0.3581726428    0.4255522581   -2.0283698322
17   
Generated by ForceBalance from scan.xyz: Frame 8 of 24
C        4.4333571949    0.7442659077    1.3381342192
C        3.1336776386    0.5876577632    0.7911774540
C        5.3401002963    0.6286202064    0.2881291770
C        3.2790261190    0.3775725891   -0.5801588435
C        2.3504029562    0.2203992042   -1.7054718266
C        0.5394124050   -1.0868105567   -0.6004314980
N        4.6308302025    0.4046532750   -0.8560327680
N        0.9966615346    0.0529987646   -1.4116248128
O        2.7479117597    0.3537523162   -2.8697885095
H        4.6865687175    0.9283119379    2.3741731320
H        2.1949203024    0.6547272384    1.3246011736
H        6.4199143234    0.6903311454    0.2805195218
H        0.5997905853   -2.0346177563   -1.1520414117
H       -0.4977684982   -0.9190785718   -0.2975904172
H        1.1472588317   -1.1764309468    0.2990970212
H        4.9848170182    0.3386201612   -1.8028558307
H        0.4921520675    0.0995390827   -2.2945851916
17   
Generated by ForceBalance from scan.xyz: Frame 9 of 24
C        4.4129291159    0.7537500031    1.2902275290
C        3.1522308541    0.4982743226    0.6908998837
C        5.3542663593    0.8063666914    0.2663627246
C        3.3551487914    0.4025954115   -0.6865129746
C        2.4993611858    0.2014222820   -1.8636622580
C        0.6237872752   -0.9577751162   -0.6541455406
N        4.7034000810    0.5880929107   -0.9124428034
N        1.1493102340   -0.0279758100   -1.6641553586
O        2.9637512256    0.3453550286   -3.0038135070
H        4.6171178294    0.8883192750    2.3445381722
H        2.2043829714    0.4127564143    1.2036094034
H        6.4208287254    0.9831163497    0.2988799316
H       -0.1784253820   -1.5493093867   -1.1017995270
H        0.2073815505   -0.4250984729    0.2075609310
H        1.3980620909   -1.6427521757   -0.2982886769
H        5.0851904701    0.6072439586   -1.8509046737
H        0.6954519171   -0.1049657505   -2.5687777091
17   
Generated by ForceBalance from scan.xyz: Frame 10 of 24
C        4.4163817841    0.4928773046    1.3216816723
C        3.1266525229    0.2505347019    0.7811902859
C        5.2875827706    0.6668661143    0.2509836715
C        3.2413767947    0.2844983666   -0.6107903494
C        2.3414308396    0.1590402473   -1.7695289353
C        0.4460548082   -0.8814491870   -0.4560018858
N        4.5672234128    0.5352168093   -0.8989887322
N        1.0085434898   -0.1152027801   -1.5673695680
O        2.7779651027    0.3699978755   -2.9123482630
H        4.6837612113    0.5365925954    2.3695260054
H        2.2230482296    0.0857738184    1.3493549094
H        6.3497057173    0.8702848011    0.2327407972
H        1.1298154221   -1.6643960707   -0.1135098159
H       -0.4765949252   -1.3559845818   -0.7967959168
H        0.1944245194   -0.2367985688    0.3926914512
H        4.8843115312    0.6395781497   -1.8561191732
H        0.5299757398   -0.2050594160   -2.4565856181
17   
Generated by ForceBalance from scan.xyz: Frame 11 of 24
C        4.4390548754    0.4536476779    1.3151280586
C        3.1651646385    0.1457340176    0.7700595505
C        5.2848199798    0.7472955889    0.2507074570
C        3.2634019934    0.2600035411   -0.6200935933
C        2.3837605016    0.1111168246   -1.7945579861
C        0.4409275223   -0.8243785958   -0.4499973356
N        4.5643065310    0.6251391849   -0.8996828695
N        1.0741002649   -0.2553771318   -1.6317768754
O        2.8331320113    0.3532370566   -2.9276367104
H        4.7116869664    0.4616720068    2.3625074885
H        2.2862086108   -0.1180167741    1.3382467063
H        6.3290193470    1.0288285799    0.2368939423
H        1.0325666756   -1.6404480438   -0.0216513669
H       -0.5312257670   -1.2253940806   -0.7434038995
H        0.2702967217   -0.0661271115    0.3215636435
H        4.8674071625    0.7791863614   -1.8548581021
H        0.6014474067   -0.3648242813   -2.5207881658
17   
Generated by ForceBalance from scan.xyz: Frame 12 of 24
C        4.1835985470    1.7833053070    0.3977310049
C        3.0074225894    1.0628960320    0.0624250104
C        5.2669963935    0.9498878653    0.1412500415
C        3.4027840031   -0.1990074674   -0.3933141179
C        2.7676314294   -1.4362999500   -0.8866649989
C        0.4055216809   -0.5080549741   -0.6915759814
N        4.7808178612   -0.2319152229   -0.3321697000
N        1.4074333393   -1.5158799738   -0.9997495047
O        3.4820839019   -2.4047760094   -1.1985242453
H        4.2376240578    2.7936843266    0.7819351925
H        1.9983852452    1.4354959766    0.1491808172
H        6.3288449144    1.1170229756    0.2609716175
H        0.4137152512   -0.2351536538    0.3694633062
H       -0.5771204785   -0.9218571586   -0.9260619355
H        0.5426881641    0.3967618383   -1.2930547683
H        5.2933158266   -1.0613639112   -0.6105369213
H        1.0995599970   -2.4181404857   -1.3402698611
17   
Generated by ForceBalance from scan.xyz: Frame 13 of 24
C        4.1792363399    1.7656564339    0.4296977249
C        3.0011400889    1.0247697711    0.1506215704
C        5.2631398944    0.9652836722    0.0845952354
C        3.3952380344   -0.2160350391   -0.3595983250
C        2.7544778143   -1.4557820563   -0.8368374650
C        0.4043802409   -0.4933228875   -0.7456797734
N        4.7747656797   -0.2164764574   -0.3869911195
N        1.3889896000   -1.5605507254   -0.8590051076
O        3.4647166461   -2.4138020704   -1.1863845968
H        4.2345667166    2.7673507698    0.8358299173
H        1.9907084427    1.3662564524    0.3160895985
H        6.3263515858    1.1551471303    0.1423609852
H        0.3084053187   -0.1401309645    0.2865076252
H       -0.5652826462   -0.8895667780   -1.0534583772
H        0.6469417959    0.3574269795   -1.3913385849
H        5.2882271600   -1.0278506608   -0.7125514940
H        1.0864009948   -2.4436711380   -1.2517633039
17   
Generated by ForceBalance from scan.xyz: Frame 14 of 24
C        4.1677346354    1.7504153055    0.4713145008
C        2.9923699009    0.9848750906    0.2551417804
C        5.2429859873    0.9958549630    0.0129141943
C        3.3796466278   -0.2232470390   -0.3299917450
C        2.7233707688   -1.4636480502   -0.7761161929
C        0.3942602917   -0.4761795372   -0.7997538098
N        4.7519920236   -0.1820043277   -0.4669390219
N        1.3544539479   -1.5742852869   -0.6955525772
O        3.4146462623   -2.4225919226   -1.1551502684
H        4.2281122494    2.7378835803    0.9102240224
H        1.9867194430    1.2828041123    0.5127528329
H        6.3018542733    1.2157193968   -0.0036629103
H        0.1751451196   -0.0368811551    0.1791118568
H       -0.5404357646   -0.8728057792   -1.2017955223
H        0.7493914897    0.3135433204   -1.4691222698
H        5.2649503783   -0.9727881535   -0.8398598806
H        1.0518743705   -2.4665076445   -1.0699749280
17   
Generated by ForceBalance from scan.xyz: Frame 15 of 24
C        4.2751990804    1.6942283023    0.4971493400
C        3.1133225860    0.8964933980    0.3313368389
C        5.3442744286    0.9843728381   -0.0417222356
C        3.5026476989   -0.2832523505   -0.3044307496
C        2.8325341577   -1.5217071069   -0.7235973654
C        0.5226543749   -0.5439294070   -0.9074204692
N        4.8620505418   -0.1974224817   -0.5231005293
N        1.4624716579   -1.6176091931   -0.5544700995
O        3.5000937955   -2.4903755486   -1.1139198393
H        4.3333345714    2.6716703558    0.9582376698
H        2.1126483234    1.1462463044    0.6552471548
H        6.3938202351    1.2365563286   -0.1103485337
H        0.1437983886   -0.0295430523   -0.0176459415
H       -0.3312536152   -0.9794084858   -1.4319442253
H        0.9882220240    0.1955139784   -1.5644068965
H        5.3814301366   -0.9637535146   -0.9351885454
H        1.1616458684   -2.5408500913   -0.8499898842
17   
Generated by ForceBalance from scan.xyz: Frame 16 of 24
C        4.2846177325    1.7457676762    0.5009142703
C        3.1070434458    0.9559539747    0.4519315146
C        5.2753153682    1.0538051628   -0.1903003097
C        3.4072411181   -0.1989104110   -0.2705562566
C        2.6734376483   -1.4218285624   -0.6160762773
C        0.3963198803   -0.4788158440   -0.9847998946
N        4.7309034312   -0.1099309707   -0.6503360165
N        1.3029579295   -1.4526611027   -0.3556233697
O        3.2793775772   -2.4259571179   -1.0111061776
H        4.4064576886    2.7044526593    0.9881949460
H        2.1572088739    1.1812994916    0.9181023302
H        6.3095451572    1.3074671261   -0.3797523274
H       -0.5774348732   -0.5220566218   -0.4892645021
H        0.2589716989   -0.6774099342   -2.0562141999
H        0.7915023264    0.5301244438   -0.8728391226
H        5.1999609920   -0.8656228523   -1.1351700477
H        0.9896032077   -2.4065546580   -0.5236025542
17   
Generated by ForceBalance from scan.xyz: Frame 17 of 24
C        4.3343170361    1.7215796146    0.5459884664
C        3.1559185775    0.9336751627    0.5107296781
C        5.3064105390    1.0443971524   -0.1869316218
C        3.4374126793   -0.2050861553   -0.2437222360
C        2.6631897123   -1.3901545461   -0.6079759004
C        0.3934364425   -0.5374703360   -1.0378867354
N        4.7500114358   -0.1080483283   -0.6604796887
N        1.3029620306   -1.3852021902   -0.2401992454
O        3.2102553027   -2.3894791851   -1.0860251628
H        4.4718507735    2.6683826903    1.0519739616
H        2.2133649625    1.1433602154    0.9985993702
H        6.3366356381    1.3009948310   -0.3939618358
H       -0.6055395377   -0.5763808531   -0.5955758704
H        0.3331772530   -0.8608353562   -2.0859193021
H        0.7351484949    0.4988886336   -1.0147312199
H        5.2045387805   -0.8442874570   -1.1868806103
H        0.9938767195   -2.3540720367   -0.3122137685
17   
Generated by ForceBalance from scan.xyz: Frame 18 of 24
C        4.3897196138    1.7113594340    0.6052040342
C        3.2013421152    0.9402583944    0.5739463585
C        5.3332810834    1.0489435660   -0.1785829973
C        3.4482394661   -0.1745246278   -0.2280498812
C        2.6268407347   -1.3088803779   -0.6255906046
C        0.3477693828   -0.6016932200   -1.1090743084
N        4.7515075409   -0.0794064538   -0.6771384453
N        1.2767975459   -1.2739275280   -0.1717045377
O        3.1060777507   -2.2867765553   -1.2054289521
H        4.5549230321    2.6369205458    1.1413098080
H        2.2706782924    1.1389545576    1.0880399407
H        6.3615750199    1.3002230740   -0.4017547345
H       -0.6605616900   -0.6330864127   -0.6879372545
H        0.3376872433   -1.0707050917   -2.1024362709
H        0.6358216122    0.4468114890   -1.2207252419
H        5.1790828374   -0.7906328992   -1.2574649744
H        0.9970480032   -2.2548208157   -0.1282725789
17   
Generated by ForceBalance from scan.xyz: Frame 19 of 24
C        4.3435654361    1.6070528581    0.9710849285
C        3.1616478975    0.8504392031    0.7645598351
C        5.3228345209    1.0784183439    0.1342630107
C        3.4488521842   -0.1217847207   -0.1961041113
C        2.6577149212   -1.1591220434   -0.8673708880
C        0.3071111581   -0.7963794598   -1.3825502832
N        4.7715152417    0.0378368064   -0.5537604890
N        1.3218676992   -1.3288504172   -0.4537190057
O        3.1179748456   -1.7674678808   -1.8347675427
H        4.4723598153    2.4442429879    1.6445887798
H        2.2079595729    1.0081646572    1.2527315761
H        6.3525916529    1.3737151017   -0.0157599071
H        0.3751571713    0.2948296109   -1.4960584375
H       -0.6866318383   -1.0577806314   -1.0099778452
H        0.4405528597   -1.2628859112   -2.3600929438
H        5.2038538085   -0.5355425178   -1.2686014885
H        1.1885328755   -0.9054170421    0.4615481106
17   
Generated by ForceBalance from scan.xyz: Frame 20 of 24
C        4.4589169732    1.5887678507    1.0227475265
C        3.2463923079    0.8846729121    0.8040633691
C        5.4058031032    1.0591676202    0.1507427414
C        3.4839282477   -0.0573323062   -0.1985521159
C        2.6565512345   -1.0487633601   -0.8992825048
C        0.2767506332   -0.9441290226   -1.4430363414
N        4.8055209866    0.0683219419   -0.5698342457
N        1.3400119720   -1.2091842672   -0.4617647821
O        3.0914128220   -1.6330170388   -1.8958480943
H        4.6275107969    2.3928820472    1.7270839445
H        2.3073323353    1.0584847967    1.3148976073
H        6.4434868569    1.3221473322   -0.0041890710
H        0.2135386625    0.1211019236   -1.7041668073
H       -0.6817037346   -1.2719393888   -1.0324231681
H        0.4805978688   -1.5188282041   -2.3472640317
H        5.2055526096   -0.4950226464   -1.3110728694
H        1.1765972036   -0.6935550716    0.3978705224
17   
Generated by ForceBalance from scan.xyz: Frame 21 of 24
C        4.5324792385    1.5632204816    1.0895516459
C        3.2909432750    0.9176857356    0.8497264546
C        5.4508017011    1.0401059662    0.1843976524
C        3.4845013623    0.0149004760   -0.1964267770
C        2.6206353247   -0.9190982043   -0.9350772065
C        0.2350248098   -1.0493033588   -1.4825413307
N        4.8056158521    0.1080124183   -0.5757942869
N        1.3148890822   -1.0536645975   -0.4905568529
O        3.0399996304   -1.4937679054   -1.9460703307
H        4.7378341523    2.3249715775    1.8303242922
H        2.3649846613    1.1013351636    1.3808753956
H        6.4969591079    1.2685034849    0.0321015755
H        0.0727657852   -0.0488745972   -1.9055822946
H       -0.6889104851   -1.3967241992   -1.0132325695
H        0.4966525010   -1.7341380009   -2.2894239114
H        5.1764748573   -0.4376992568   -1.3449233696
H        1.1095787464   -0.4741652831    0.3159387883
17   
Generated by ForceBalance from scan.xyz: Frame 22 of 24
C        4.5995675048    1.5104350759    1.1436859397
C        3.3327663400    0.9200245286    0.8910805153
C        5.4877469130    0.9985118496    0.2032406982
C        3.4821752696    0.0605786007   -0.1970192541
C        2.5831583693   -0.8186381949   -0.9633544304
C        0.2090515167   -1.1631425450   -1.4867656713
N        4.7998731122    0.1264814153   -0.5910675363
N        1.2795967282   -0.9052234109   -0.5251699077
O        2.9921266859   -1.4134693121   -1.9686219970
H        4.8408898649    2.2272813969    1.9177355853
H        2.4220928981    1.1052625406    1.4476429383
H        6.5400353857    1.1946888180    0.0487131929
H       -0.0331470758   -0.2704737420   -2.0785149940
H       -0.6851182916   -1.4959697633   -0.9535473148
H        0.5313458214   -1.9531087341   -2.1651333842
H        5.1428886758   -0.4035375424   -1.3837608444
H        1.0383611426   -0.2621416755    0.2191242422
17   
Generated by ForceBalance from scan.xyz: Frame 23 of 24
C        4.6464488881    1.4610574007    1.1935352439
C        3.3587666052    0.9268861763    0.9196603173
C        5.5121545619    0.9693606423    0.2221974535
C        3.4735474090    0.1233459357   -0.2136741054
C        2.5450792210   -0.6945528242   -1.0138409907
C        0.1867118757   -1.2208173716   -1.4757281398
N        4.7897635296    0.1666001123   -0.6141740500
N        1.2385732603   -0.7238570166   -0.5973334365
O        2.9468130583   -1.3149233465   -2.0078920899
H        4.9162808125    2.1258830931    2.0037885075
H        2.4587207996    1.1074594136    1.4947514867
H        6.5704713184    1.1345605363    0.0729646763
H       -0.1218829465   -0.4696802117   -2.2144667884
H       -0.6790767360   -1.5122047972   -0.8755179595
H        0.5618843561   -2.0940611718   -2.0098056522
H        5.1136119424   -0.3474729326   -1.4252119032
H        0.9732526227   -0.0503472862    0.1091227428
17   
Generated by ForceBalance from scan.xyz: Frame 24 of 24
C        4.6862374421    1.5225060107    1.1589619038
C        3.3654746804    1.0926851834    0.8587600722
C        5.5315589692    0.9471752405    0.2162891341
C        3.4410435108    0.2657600820   -0.2606597788
C        2.4698559273   -0.4928662237   -1.0702752307
C        0.0878194209   -1.0979795199   -1.3804457357
N        4.7652744034    0.1950590502   -0.6284398470
N        1.1614028015   -0.4078844827   -0.6836659441
O        2.8484248932   -1.1618132947   -2.0427476242
H        4.9901646057    2.1751462491    1.9670703548
H        2.4690512343    1.3625832179    1.4038294535
H        6.6034170370    1.0208920520    0.0928148359
H       -0.6498812418   -0.3867092428   -1.7690638575
H       -0.4178906536   -1.8102126398   -0.7184207284
H        0.5289907667   -1.6425817437   -2.2153320722
H        5.0640347251   -0.3545937447   -1.4256585392
H        0.9362205199    0.1571633623    0.1229872384
