67

C      4.61528   -1.29214    8.77887
C     -0.57052   -3.85027    2.91176
C      3.40848   -0.79174    8.27379
C      5.72857   -1.38452    7.93924
C     -0.45922   -2.89719    3.93142
C      0.55203   -4.17023    2.14392
C      3.31921   -0.38605    6.94099
C      5.63337   -0.97928    6.60260
C      0.76628   -2.27791    4.18447
C      1.77787   -3.54462    2.39860
C      4.43231   -0.47442    6.09129
C      1.90083   -2.60002    3.42435
C      0.82972    1.54254   -0.34015
C     -1.29652   -0.48739   -2.44431
C     -0.26661    0.65290   -2.38181
C     -1.22138    0.03848   -0.19616
C      1.03550    0.24840   -3.08075
C     -0.83874    1.95375   -2.96611
C     -2.05005    0.93632    0.72013
C     -0.70259   -1.20721    0.52528
C      1.09525    3.63976    1.99470
C      4.32916   -0.00754    4.65339
C      3.23812   -1.96378    3.74289
C      2.11252    1.54106    3.02459
C      2.82452    0.21425    2.75082
C      1.75643    2.28923    1.74461
N     -0.12386    0.75741   -0.90890
N      3.13495   -0.52152    3.97992
O      1.61432    2.25667   -0.95847
O     -2.08987   -0.33908   -1.27344
O      0.83221    1.42852    1.01979
H      4.68434   -1.61060    9.81591
H     -1.52514   -4.33043    2.71221
H      2.53780   -0.71996    8.92118
H      6.66780   -1.77752    8.32052
H     -1.33049   -2.63690    4.52774
H      0.47278   -4.89921    1.34126
H      2.38268   -0.00812    6.54004
H      6.50044   -1.06280    5.95030
H      0.85757   -1.53207    4.96863
H      2.64644   -3.79249    1.79163
H     -1.95726   -0.41263   -3.31053
H     -0.79505   -1.46555   -2.45851
H      1.75718    1.06532   -3.07248
H      0.82030   -0.02158   -4.12097
H      1.48474   -0.61911   -2.58668
H     -0.16990    2.78941   -2.74936
H     -1.82325    2.16402   -2.53726
H     -0.94553    1.86749   -4.05309
H     -2.33625    1.84880    0.19071
H     -1.49737    1.19836    1.62152
H     -2.95869    0.39675    1.00152
H     -0.16861   -1.86261   -0.16746
H     -1.54375   -1.76163    0.94786
H     -0.02431   -0.93851    1.33571
H      0.18277    3.51943    2.58800
H      1.77787    4.30032    2.53982
H      0.84083    4.11961    1.04623
H      4.27623    1.08586    4.64290
H      5.25364   -0.27786    4.10936
H      3.63400   -2.41890    4.65729
H      3.96096   -2.19528    2.93850
H      1.20312    1.34142    3.60247
H      2.73934    2.20226    3.63342
H      2.16214   -0.40700    2.14547
H      3.73321    0.38889    2.14403
H      2.64289    2.42268    1.11966
