33

C     -6.42599   -1.07794   -5.23288
C     -5.14649   -0.97640   -4.68655
C     -7.20281   -2.18453   -4.88678
C     -4.68119   -1.97157   -3.81947
C     -5.55016   -3.04498   -3.52321
C     -0.92749    0.32916   -2.55520
C     -0.26382    0.27753   -3.91799
C     -4.81476   -3.86555   -1.16638
C     -6.09397   -4.58997   -1.53378
C     -1.09240   -0.88764   -3.43654
C     -5.13147   -4.17536   -2.61765
C     -4.35064   -5.27495   -3.32434
C     -3.29855   -1.86040   -3.20457
N     -6.78136   -3.14341   -4.05359
N     -2.38317   -1.08506   -4.04911
H     -6.81366   -0.32067   -5.90903
H     -4.49793   -0.13773   -4.92086
H     -8.20632   -2.30864   -5.29248
H     -0.30307    0.24528   -1.67062
H     -1.79604    0.97254   -2.45232
H     -0.69527    0.89063   -4.70310
H      0.81435    0.15566   -3.96475
H     -4.90136   -2.83549   -0.83150
H     -4.01489   -4.42652   -0.68927
H     -6.16851   -5.64975   -1.30559
H     -7.02998   -4.04582   -1.46314
H     -0.54267   -1.78231   -3.12616
H     -4.06714   -6.06579   -2.62161
H     -3.43328   -4.89137   -3.78582
H     -4.96261   -5.72315   -4.11433
H     -3.37166   -1.33668   -2.24299
H     -2.90817   -2.86004   -2.97044
H     -2.26754   -1.55909   -4.94413
