33

C     -6.40468   -1.00754   -5.64404
C     -5.10595   -0.85746   -5.16120
C     -7.14256   -2.11109   -5.20970
C     -4.58245   -1.80130   -4.27049
C     -5.40671   -2.88313   -3.89654
C     -2.71753    1.31249   -1.51437
C     -3.05269   -0.06692   -0.96380
C     -5.19391   -5.37169   -3.26082
C     -3.78175   -4.82209   -3.28915
C     -3.45863    0.33096   -2.37481
C     -4.94691   -3.92690   -2.91028
C     -5.11429   -3.51164   -1.45477
C     -3.15641   -1.64066   -3.76813
N     -6.66228   -3.02511   -4.35946
N     -2.82004   -0.22798   -3.54553
H     -6.83818   -0.29053   -6.33608
H     -4.48890   -0.01087   -5.44930
H     -8.16342   -2.26831   -5.55665
H     -3.25560    2.17340   -1.12872
H     -1.67707    1.51424   -1.75876
H     -2.23141   -0.77157   -0.85833
H     -3.81887   -0.14697   -0.19737
H     -5.68310   -5.57881   -4.20686
H     -5.46612   -6.04597   -2.45335
H     -3.09094   -5.11775   -2.50316
H     -3.31931   -4.67629   -4.26179
H     -4.51791    0.52323   -2.52682
H     -4.76176   -4.30061   -0.78150
H     -6.17141   -3.32507   -1.23644
H     -4.55594   -2.59700   -1.22793
H     -3.00519   -2.24965   -2.86952
H     -2.46968   -2.02690   -4.53231
H     -1.81101   -0.12659   -3.47233
