62

C     -4.05666    0.84980    2.08147
C     -2.69715    1.06915    1.86905
C     -4.32145    0.23266   -0.23344
C     -2.95636    0.45291   -0.44674
C     -4.88707    0.43413    1.02882
C     -2.13171    0.87873    0.59844
C     -7.18252    1.57671    1.33454
C     -0.31697    2.68463    0.26186
C     -7.98559    1.38481    2.63024
C      0.85306    2.81166    1.24951
C     -6.36856    0.25185    1.23853
C     -0.67409    1.17077    0.34920
C     -7.98846   -2.55207    5.72091
C     -9.12981   -2.81542    3.47114
C      3.42635   -0.78965    1.51296
C      2.98303   -0.77870    4.01034
C     -9.57527   -0.02640    4.65382
C      3.32565    2.05617    2.63896
C     -8.05023   -2.06812    4.26538
C      2.45740   -0.37103    2.62682
C     -8.20374   -0.53022    4.18688
C      2.10122    1.13416    2.57831
N     -7.98783   -0.07694    2.80491
N      1.35630    1.43153    1.34597
O     -6.58977   -0.39823    2.49367
O      0.09872    0.68150    1.44930
H     -4.48376    0.98073    3.07160
H     -2.05683    1.37231    2.69245
H     -4.94648   -0.10983   -1.05556
H     -2.53062    0.27996   -1.43299
H     -7.83294    1.68959    0.46374
H     -6.53065    2.45074    1.39107
H     -1.15812    3.31774    0.55117
H     -0.02247    2.94968   -0.75653
H     -7.48907    1.88740    3.47644
H     -9.01268    1.74723    2.55310
H      1.64724    3.46785    0.88770
H      0.50132    3.17782    2.22797
H     -6.78492   -0.37230    0.43745
H     -0.34405    0.66680   -0.56827
H     -8.94426   -2.42069    6.24086
H     -7.74592   -3.61960    5.75630
H     -7.21885   -2.01758    6.28990
H    -10.11764   -2.71358    3.93530
H     -9.19226   -2.43644    2.44716
H     -8.89836   -3.88535    3.42772
H      4.42641   -0.36773    1.66621
H      3.53204   -1.87985    1.49019
H      3.06209   -0.46014    0.53583
H      3.96138   -0.33518    4.22775
H      2.29236   -0.47888    4.80709
H      3.10209   -1.86608    4.06614
H    -10.35601   -0.28929    3.93427
H     -9.83432   -0.47151    5.61748
H     -9.58200    1.05919    4.78487
H      3.89826    2.01021    1.70815
H      3.03773    3.09667    2.81272
H      3.98289    1.75961    3.45991
H     -7.08344   -2.29110    3.80457
H      1.51462   -0.90178    2.46501
H     -7.42480   -0.08386    4.83080
H      1.45141    1.35139    3.44502
