30

C     -0.53198    1.98938   -0.16042
C     -1.89090    1.96543   -0.28482
C     -0.14392    0.63032    0.12199
C     -1.29239   -0.10757    0.15691
C      2.11482    0.58669   -1.88688
C     -1.43840   -1.56081    0.44786
C     -0.12111   -2.05413    1.08098
C      1.11212   -1.53095    0.32424
C      2.56744    0.86995   -4.13798
C      1.12127    0.39721   -3.91438
C      1.19510    0.00878    0.37597
N      2.95140    1.18309   -2.74973
N      2.23713    0.53065   -0.57433
O     -2.36838    0.69271   -0.08992
O      1.08179    0.02978   -2.48869
H      0.09766    2.86637   -0.24301
H     -2.63586    2.72286   -0.48123
H     -2.28179   -1.73471    1.12347
H     -1.65310   -2.11597   -0.47474
H     -0.07622   -1.72669    2.12597
H     -0.09869   -3.14724    1.08997
H      2.02784   -1.95802    0.74482
H      1.05162   -1.84746   -0.72212
H      3.21076    0.08829   -4.55208
H      2.61935    1.76043   -4.76563
H      0.38413    1.18901   -4.05410
H      0.84520   -0.49037   -4.47958
H      1.57767    0.32174    1.35341
H      3.85539    1.55853   -2.48877
H      3.08702    0.91091   -0.17383
