32

C     -3.25772    2.01031   -2.75023
C     -1.96726    0.26611   -3.86474
C     -4.42378    1.54094   -3.35744
C     -3.12972   -0.19868   -4.47875
C     -2.04749    1.36074   -3.00190
C     -4.34538    0.43906   -4.21341
C     -0.65736   -0.30240   -0.58918
C      0.75721    1.68423    1.63905
C      0.43048    0.35450    2.33035
C      0.83561    1.64401    0.10605
C     -0.92571   -0.24617    1.93445
C     -0.49234    1.21530   -0.55374
N     -0.94356   -0.88099    0.61443
O     -0.53271   -0.96816   -1.61399
O      0.61143    1.57281   -3.01230
O     -0.78581    3.42188   -1.93964
S     -0.55571    1.99289   -2.22923
Cl    -5.80688   -0.15163   -4.97968
H     -3.28185    2.88683   -2.11025
H     -1.01112   -0.21254   -4.03976
H     -5.37631    2.03006   -3.18160
H     -3.09542   -1.04775   -5.15359
H      0.00714    2.43129    1.93084
H      1.71783    2.05183    2.01674
H      1.21490   -0.38486    2.12780
H      0.42269    0.52141    3.41415
H      1.09014    2.64827   -0.24419
H      1.63123    0.97434   -0.23390
H     -1.20772   -1.02370    2.64839
H     -1.70870    0.52088    1.98908
H     -1.33465    1.68321   -0.03405
H     -0.96381   -1.89398    0.57167
