32

C     -0.38874    3.81372   -2.55110
C     -2.57925    2.77910   -2.32078
C     -0.96720    5.07637   -2.40606
C     -3.16195    4.03803   -2.17088
C     -1.19696    2.67725   -2.49435
C     -2.34721    5.17427   -2.20928
C     -0.02030   -0.99483   -0.88159
C      0.23219    1.35749    1.40245
C      0.21690   -0.00458    2.10973
C      0.58943    1.33952   -0.09227
C     -0.78963   -1.01145    1.53136
C     -0.38695    0.49267   -0.92527
N     -0.36799   -1.63763    0.27693
O      0.56455   -1.55899   -1.79627
O     -1.43056    0.20318   -3.38459
O      0.91545    1.25929   -3.18887
S     -0.44758    1.04341   -2.68883
Cl    -3.07608    6.75549   -2.01977
H      0.67734    3.70525   -2.72630
H     -3.19611    1.88521   -2.33170
H     -0.35777    5.97324   -2.45116
H     -4.23438    4.14068   -2.04003
H     -0.75386    1.82757    1.51903
H      0.94533    2.01280    1.91491
H      1.21630   -0.45594    2.08921
H     -0.03562    0.16017    3.16414
H      0.57166    2.37280   -0.44928
H      1.60578    0.96896   -0.25647
H     -0.94362   -1.82674    2.24231
H     -1.76833   -0.53292    1.39836
H     -1.41527    0.64281   -0.58018
H     -0.01242   -2.58665    0.31853
