32

C      2.37292   -1.43293   -3.49375
C      1.01155   -3.17447   -2.46510
C      2.04411   -1.92038   -4.75805
C      0.68254   -3.66459   -3.72837
C      1.84851   -2.06252   -2.36403
C      1.19919   -3.02946   -4.86103
C     -0.40668   -0.52009   -0.88702
C     -0.06679    1.04000    1.58155
C     -0.86169   -0.09647    2.25241
C      1.23245    0.55014    0.91882
C     -0.84049   -1.39831    1.43846
C      1.00502   -0.06149   -0.48791
N     -1.15929   -1.19616    0.02328
O     -0.81337   -0.27440   -2.02319
O      1.96988   -2.46892    0.24854
O      3.55589   -0.75636   -0.79828
S      2.23851   -1.41063   -0.74373
Cl     0.78377   -3.64191   -6.44796
H      3.03956   -0.58307   -3.38530
H      0.63201   -3.65001   -1.56668
H      2.43937   -1.45080   -5.65281
H      0.03486   -4.52856   -3.83559
H     -0.68966    1.54866    0.83714
H      0.17989    1.79528    2.33468
H     -0.42953   -0.31813    3.23602
H     -1.89387    0.22953    2.42356
H      1.93240    1.37958    0.80006
H      1.72263   -0.17139    1.57931
H      0.13392   -1.88429    1.50556
H     -1.57014   -2.10866    1.83524
H      1.26705    0.66412   -1.25909
H     -2.10136   -1.38551   -0.30012
