34

C     -0.65571    0.35845   -0.41788
C     -1.52034    0.89937   -1.08279
C      1.45279   -0.91621   -0.24933
C      0.28628   -0.29953    1.76804
C      0.36133   -0.27672    0.36428
C      2.45062   -1.54045    0.50137
C      1.27028   -0.91646    2.54268
C      2.38925   -1.52205    1.91755
C      3.11491   -3.72093    3.00901
C     -2.56400    1.54475   -1.88454
C      4.78893   -1.27830   -0.46213
C      1.79751    0.30296    4.71063
C      3.45878   -2.18947    2.73991
C      3.59297   -2.22029   -0.22970
C      1.11706   -0.91149    4.05203
O      2.44429   -3.93814    4.05204
O      3.55069   -4.52235    2.14146
H      1.51044   -0.93241   -1.33594
H     -0.56718    0.16601    2.25711
H     -2.88142    2.49377   -1.43560
H     -2.20596    1.76104   -2.89812
H     -3.45252    0.90761   -1.97588
H      4.49569   -0.40965   -1.06441
H      5.60321   -1.79769   -0.98286
H      5.18417   -0.90176    0.48734
H      2.87069    0.31949    4.49263
H      1.67636    0.27822    5.80090
H      1.37153    1.24320    4.33947
H      4.42075   -2.14279    2.22752
H      3.56675   -1.69148    3.70452
H      3.90093   -3.11082    0.32633
H      3.22693   -2.56768   -1.20393
H      0.04734   -0.88720    4.29469
H      1.51091   -1.84723    4.45986
