30

C     -2.08122    1.52706    1.02057
C     -1.47874    2.47352    0.18417
C     -1.57207    0.22801    1.06092
C     -0.38932    2.11051   -0.60652
C     -0.45836   -0.15092    0.29717
C      0.12936    0.80547   -0.55249
C      0.46342   -2.07339   -1.01870
C      1.66092   -1.35557   -1.63579
C      0.09235   -1.55960    0.38492
C      1.30512   -1.63788    1.34025
C      1.05198   -1.25897    2.80665
C      0.31399   -2.34048    3.59859
O      2.28006   -1.06812    3.50474
F     -0.92965   -2.55301    3.07970
F      0.14428   -1.98810    4.88812
F      0.95992   -3.52718    3.57756
S      1.54172    0.48560   -1.59063
H     -2.94078    1.79602    1.62820
H     -1.86464    3.48835    0.13371
H     -2.04126   -0.51559    1.70130
H      0.06034    2.83854   -1.27752
H     -0.40935   -1.96532   -1.67078
H      0.70242   -3.14262   -0.96992
H      2.58674   -1.63525   -1.12797
H      1.76367   -1.62653   -2.68939
H     -0.69880   -2.20783    0.76702
H      1.75079   -2.63803    1.30691
H      2.07255   -0.94026    0.98863
H      0.42251   -0.36309    2.86540
H      2.65148   -0.21722    3.22680
