23   

C       -4.8394601042   -6.8729070755   -2.0221284179
C        1.2347101083   -4.8207364148    3.1736935974
C       -3.3355728355   -4.8946904544   -1.4716640763
C        1.0757264974   -5.3672091187    1.9398704939
C       -3.7725522803   -6.5056215754    0.1796505163
C       -4.0130479928   -6.1339506858   -1.1173617373
C       -2.5758945630   -4.3762083332   -0.4440670977
C        0.6971211913   -3.5088213347    3.4436244188
C       -0.1413604036   -3.3644610788    1.3093939430
C       -1.8558197225   -3.1092718631   -0.4969829350
C       -0.8855133087   -2.6259284124    0.3053439557
N       -5.5075033779   -7.4769051356   -2.7604419890
N        0.0167431990   -2.8104618700    2.4726301183
N        0.3830434993   -4.6182217636    0.9895588245
O        0.8350725622   -3.0208983927    4.5519774596
S       -2.7150894944   -5.3748437611    1.0131887522
H        1.7543463534   -5.3328153726    3.9710967389
H       -3.4334601553   -4.4289965188   -2.4468830716
H        1.4780525573   -6.3534878375    1.7199031007
H       -4.1867343045   -7.3928052393    0.6451368062
H       -2.1559847411   -2.4459982699   -1.3020406643
H       -0.6957865415   -1.5600824532    0.2880651129
H        0.2106832945   -4.9592857987    0.0510010314
23   

C       -4.5232503385   -7.0160959645   -1.9709498313
C        1.3106820533   -4.8953975725    3.0976466629
C       -3.1738407547   -4.9317808196   -1.4118557403
C        0.9598311706   -5.4544655709    1.9101344621
C       -3.8241720791   -6.3829762487    0.3167848314
C       -3.8679168936   -6.1551278794   -1.0345415447
C       -2.6029852662   -4.2822133003   -0.3396613593
C        0.9389689527   -3.5288674671    3.3759251991
C       -0.1127615794   -3.3523558386    1.3402666733
C       -1.8925396744   -3.0039293597   -0.3854846690
C       -0.8861604128   -2.5637883956    0.3957690864
N       -5.0509872311   -7.7195749409   -2.7342844062
N        0.2283233072   -2.7886341583    2.4588757009
N        0.2424538142   -4.6628341812    1.0146918030
O        1.2457939678   -3.0300286164    4.4448608212
S       -2.9386796637   -5.1312046823    1.1783009059
H        1.8635896861   -5.4375058719    3.8516124493
H       -3.1236313380   -4.5723842460   -2.4346219073
H        1.2343917763   -6.4822828726    1.6838111370
H       -4.2840656003   -7.2346852848    0.8052391596
H       -2.2063291715   -2.3249117600   -1.1720694882
H       -0.6711306479   -1.5024918660    0.3998553517
H       -0.0755684420   -5.0106364082    0.1172591340
23   

C       -4.2291394646   -7.1186684602   -2.0247245082
C        1.2507894451   -5.1087406877    3.0574335406
C       -3.0406647212   -4.9613266818   -1.3832767003
C        0.7230619817   -5.6367094337    1.9224798861
C       -3.9511534558   -6.3217287480    0.3016891743
C       -3.7646091462   -6.1800822740   -1.0496150777
C       -2.6858893365   -4.2274822960   -0.2751960064
C        1.0477966837   -3.7101537415    3.3499500574
C       -0.1839615814   -3.4383994561    1.4278635151
C       -1.9832621180   -2.9375394695   -0.2452337877
C       -0.9595047789   -2.5737040771    0.5508525503
N       -4.6005958348   -7.8855378065   -2.8183433005
N        0.3244713449   -2.9069084612    2.4979273947
N       -0.0005765368   -4.7816375448    1.0932389943
O        1.5132726611   -3.2379586094    4.3727167159
S       -3.2548785170   -4.9909237198    1.2172851950
H        1.8231975865   -5.6993085977    3.7585604181
H       -2.8142395517   -4.6664150391   -2.4030201482
H        0.8677901365   -6.6883808112    1.6856871153
H       -4.4714471938   -7.1555225545    0.7597344828
H       -2.2993126918   -2.2077849058   -0.9840910796
H       -0.7110567763   -1.5212002847    0.6094698929
H       -0.4473398985   -5.1009944525    0.2407700994
23   

C       -3.9344790681   -7.2299990573   -2.0035042251
C        1.2296306102   -5.2088099560    2.9804525812
C       -2.8995899590   -5.0004519707   -1.3428390895
C        0.5500975500   -5.7241679106    1.9233151896
C       -4.0444487790   -6.2645463834    0.2727594088
C       -3.6475657291   -6.2124667409   -1.0392078030
C       -2.7462589441   -4.1799471092   -0.2514413885
C        1.1646043423   -3.7910174696    3.2415436570
C       -0.2256914600   -3.4730939869    1.4371141559
C       -2.0581094473   -2.8783394278   -0.1748922471
C       -1.0065030573   -2.5665569438    0.6048532534
N       -4.1607199526   -8.0612869171   -2.7867706201
N        0.4258430635   -2.9558720688    2.4344400565
N       -0.1857537812   -4.8370648769    1.1400765782
O        1.7652459055   -3.3291503968    4.1963613041
S       -3.5257723977   -4.8535270840    1.1864922639
H        1.8237191143   -5.8235312103    3.6416098393
H       -2.5106779976   -4.7733365489   -2.3306463457
H        0.5886857732   -6.7901343331    1.7105344559
H       -4.6171266105   -7.0786968740    0.7030327005
H       -2.4054347215   -2.1092098234   -0.8576988165
H       -0.7236463863   -1.5235821299    0.6780849237
H       -0.7384799384   -5.1426429100    0.3462809218
23   

C       -3.6713903332   -7.2722864512   -1.9718571423
C        1.2151577226   -5.2215334010    2.9359383990
C       -2.7765390183   -4.9948424775   -1.2708717584
C        0.3888270107   -5.7329086971    1.9870785550
C       -4.1778958155   -6.1833862361    0.1923769431
C       -3.5603307000   -6.1986237941   -1.0324533036
C       -2.8224693223   -4.1126633279   -0.2195892088
C        1.2739949858   -3.7927262743    3.1281927762
C       -0.2797245304   -3.4547872947    1.4649256402
C       -2.1545817800   -2.8016113928   -0.0838936948
C       -1.0762537401   -2.5252193828    0.6711194538
N       -3.7548746833   -8.1495261306   -2.7328205136
N        0.5098183497   -2.9433091673    2.3607051240
N       -0.3690071013   -4.8307079564    1.2430366084
O        2.0072145856   -3.3328158747    3.9865288347
S       -3.8318803618   -4.7161108463    1.0996088811
H        1.8375223033   -5.8473467120    3.5595876992
H       -2.2197083645   -4.8174487158   -2.1860898911
H        0.3326294147   -6.8072208599    1.8266693335
H       -4.8128006461   -6.9806474361    0.5630559322
H       -2.5579200201   -1.9903887222   -0.6820148183
H       -0.7698039523   -1.4889637358    0.7465487531
H       -1.0173369244   -5.1304056157    0.5224597997
23   

C       -3.4690759569   -7.3208124377   -1.9296750456
C        1.2385739308   -5.2508995564    2.8739574425
C       -2.6725533988   -5.0250371743   -1.1718906399
C        0.2733897621   -5.7558816646    2.0627006069
C       -4.3518877087   -6.1233438129    0.0484818713
C       -3.5134984730   -6.2055589099   -1.0342353933
C       -2.8957445726   -4.0950196936   -0.1864710050
C        1.4070405306   -3.8212414007    2.9683978703
C       -0.3105421696   -3.4698113785    1.4769765268
C       -2.2448063262   -2.7825088333    0.0095313721
C       -1.1350841041   -2.5282283785    0.7258710696
N       -3.4277080422   -8.2322432443   -2.6529216639
N        0.6095677528   -2.9655704856    2.2431970121
N       -0.5131034650   -4.8463506565    1.3580728133
O        2.2661684038   -3.3655071940    3.7033591006
S       -4.1514637984   -4.6191689290    0.9393801975
H        1.8930348796   -5.8823763063    3.4577558483
H       -1.9514430861   -4.8955484684   -1.9737038989
H        0.1331855119   -6.8310792118    1.9772464687
H       -5.0635031959   -6.8933922927    0.3257305018
H       -2.7240456917   -1.9340917639   -0.4691257957
H       -0.8132420361   -1.4960667304    0.7944449303
H       -1.2540424117   -5.1412509656    0.7308862414
23   

C       -3.7541289332   -7.7370831403   -0.6879527780
C        1.0828022109   -4.9745560827    3.3243994730
C       -2.5894590470   -5.4736829018   -0.6759292652
C       -0.0762186404   -5.4522166450    2.8014104200
C       -4.7056442155   -5.6862926173    0.3193678354
C       -3.7061379277   -6.3480469411   -0.3475893102
C       -2.7725535376   -4.1859538662   -0.2321593216
C        1.6355125875   -3.7441092498    2.8132590041
C       -0.1001672276   -3.5277919447    1.3167240422
C       -1.8844894846   -3.0202834267   -0.3997262297
C       -0.7333249351   -2.7612427496    0.2483604353
N       -3.7917829225   -8.8692786116   -0.9566803639
N        1.0077513528   -3.0534035191    1.8021139243
N       -0.6752968665   -4.7108777484    1.7843199682
O        2.6723701657   -3.3099864476    3.2849293119
S       -4.3291251056   -3.9867280318    0.5772592279
H        1.6143175861   -5.4835338155    4.1158227952
H       -1.7114861582   -5.8052333249   -1.2230509942
H       -0.5064948898   -6.3793611614    3.1732450686
H       -5.6279876696   -6.1524043541    0.6483813290
H       -2.2323793181   -2.2558703199   -1.0876906386
H       -0.1993745602   -1.8613161801   -0.0323593356
H       -1.5372104591   -5.0024343441    1.3356550773
23   

C       -3.6022618961   -7.7546228987   -0.5846509944
C        1.0917191534   -5.0331874920    3.2831224725
C       -2.5249155558   -5.4493830146   -0.5191816932
C       -0.1558834167   -5.4022320732    2.8924818362
C       -4.7898112751   -5.6795370826    0.0546390896
C       -3.6603724939   -6.3442828852   -0.3498942686
C       -2.8244022789   -4.1413877275   -0.2150606391
C        1.7081487936   -3.8760620322    2.6817339966
C       -0.1388470998   -3.5204631740    1.3549124735
C       -1.9631928950   -2.9534870915   -0.3040592833
C       -0.7985019569   -2.7169289226    0.3317428923
N       -3.5561895269   -8.9037496287   -0.7661296464
N        1.0520476347   -3.1475271050    1.7163081873
N       -0.7792209488   -4.6262323079    1.9163828461
O        2.8257538864   -3.5396894769    3.0335845087
S       -4.5173967162   -3.9520938284    0.2504342807
H        1.6482283829   -5.5762461450    4.0336838615
H       -1.5490278451   -5.7813841274   -0.8625277776
H       -0.6352079603   -6.2728892003    3.3343297943
H       -5.7461081203   -6.1595737961    0.2312267643
H       -2.3509574884   -2.1360000515   -0.9040780524
H       -0.2625365063   -1.8155264001    0.0597264845
H       -1.7043985908   -4.8416989568    1.5602426468
23   

C       -3.4684955211   -7.7665267746   -0.4731490634
C        1.0846938324   -5.0784509242    3.2439227601
C       -2.4823082770   -5.4226054995   -0.3641021240
C       -0.2248924872   -5.3363869691    2.9909564722
C       -4.8080039524   -5.7024322097   -0.2111151495
C       -3.6060563216   -6.3475069292   -0.3507939943
C       -2.8655498282   -4.1085318843   -0.2097524275
C        1.7397072629   -3.9961139610    2.5508790389
C       -0.1906005998   -3.5003929234    1.4002698846
C       -2.0469325253   -2.8938293911   -0.2077348503
C       -0.8758102927   -2.6647782064    0.4223335443
N       -3.3605129935   -8.9224012704   -0.5622692268
N        1.0584870976   -3.2302519637    1.6329167296
N       -0.8712202500   -4.5250255152    2.0593941257
O        2.9133793859   -3.7592058544    2.7794878557
S       -4.6211746210   -3.9574602934   -0.0846854715
H        1.6631041967   -5.6566654239    3.9504123950
H       -1.4520049835   -5.7405465220   -0.4983027849
H       -0.7338357584   -6.1494456719    3.5038017734
H       -5.7677365504   -6.2065561096   -0.1842161916
H       -2.4662633258   -2.0462657029   -0.7410784643
H       -0.3449524221   -1.7567202375    0.1630145966
H       -1.8412741878   -4.6649843044    1.7977443302
23   

C       -3.3754980173   -7.7452532743   -0.3894049648
C        1.0739036071   -5.1361016795    3.2275891125
C       -2.4412403317   -5.3836753447   -0.2239680427
C       -0.2723237633   -5.2706357700    3.1038690387
C       -4.7521023710   -5.6922722956   -0.4968067073
C       -3.5419408273   -6.3241526487   -0.3731243378
C       -2.8520739020   -4.0671543493   -0.2180395087
C        1.7600282978   -4.1328715882    2.4503543699
C       -0.2129375872   -3.4798261516    1.4642233005
C       -2.0786683971   -2.8324699897   -0.1094899704
C       -0.9083155720   -2.6098224394    0.5268110390
N       -3.2465309394   -8.9024685939   -0.3920235409
N        1.0713636188   -3.3234086726    1.5763193814
N       -0.9244255955   -4.4166666074    2.2152769669
O        2.9667963362   -4.0052799300    2.5651961594
S       -4.6019016985   -3.9408552670   -0.4313914796
H        1.6592627167   -5.7561405209    3.8916670458
H       -1.4040762265   -5.6977539438   -0.1480383639
H       -0.8047443806   -6.0224353279    3.6822435114
H       -5.6967213877   -6.2094689046   -0.6230845013
H       -2.5167037357   -1.9643473479   -0.5923010594
H       -0.3787222749   -1.6955874988    0.2880235038
H       -1.9227879448   -4.4703869847    2.0452276592
23   

C       -3.3553982408   -7.7594187516   -0.2890117643
C        1.1117613965   -5.1252536850    3.1653732019
C       -2.4615479542   -5.3848054074   -0.0935134659
C       -0.2457497141   -5.1815369998    3.1770967909
C       -4.6910597058   -5.7275296126   -0.7428093449
C       -3.5209120816   -6.3410059055   -0.3796789805
C       -2.8626177378   -4.0713657039   -0.2335140624
C        1.7749034870   -4.1828434016    2.2971313837
C       -0.2440008554   -3.4431217023    1.4822015072
C       -2.1511503952   -2.8123542944   -0.0390065839
C       -0.9804318030   -2.5647851851    0.5881849028
N       -3.2286699600   -8.9138730628   -0.2047139278
N        1.0514477405   -3.3577824366    1.4670042506
N       -0.9325718324   -4.3119306781    2.3304860882
O        2.9922648957   -4.1221575379    2.2944286806
S       -4.5518218348   -3.9746427266   -0.7472326770
H        1.7231870291   -5.7634138458    3.7875312521
H       -1.4560141979   -5.6950111548    0.1730849570
H       -0.7603985470   -5.8858979960    3.8269152489
H       -5.6006245213   -6.2585177094   -1.0002706420
H       -2.6229816078   -1.9418890948   -0.4842504780
H       -0.4781081693   -1.6328129255    0.3599961742
H       -1.9443947345   -4.3044143803    2.2664389400
23   

C       -4.2481268288   -7.2416909175    1.0215343324
C        1.1292301289   -4.9929086680    3.1394698428
C       -2.8716326808   -5.1600315869    0.5250979608
C        0.8215588936   -5.5729139620    1.9497475722
C       -4.6220759214   -5.7571319297   -0.9207047042
C       -3.9436658153   -6.0962147863    0.2198172275
C       -2.7604361569   -4.1385743421   -0.3980093149
C        0.8120130557   -3.6016143916    3.3538793774
C       -0.1227809962   -3.4462111328    1.2599335543
C       -1.8372076573   -3.0165727477   -0.5262728872
C       -0.7948012423   -2.6493256930    0.2501564303
N       -4.4903726034   -8.1817705835    1.6647032547
N        0.1811587349   -2.8632935114    2.3792038149
N        0.1988613160   -4.7772609641    0.9882676412
O        1.1023337324   -3.0759109070    4.4145056762
S       -3.9857467649   -4.2969275085   -1.6640925672
H        1.6100501688   -5.5356221904    3.9410414373
H       -2.2605945313   -5.2635953823    1.4145426959
H        1.0575058798   -6.6199259709    1.7725648715
H       -5.4568207920   -6.3209674011   -1.3214964342
H       -2.0578872502   -2.3307053922   -1.3382846057
H       -0.4642312413   -1.6196999688    0.1946447101
H       -0.0667396054   -5.1356243079    0.0780995059
23   

C       -4.3451896051   -7.2069802714    1.0164140202
C        1.1405254599   -5.1468827953    3.1486256206
C       -2.9887915372   -5.0920913774    0.6121712844
C        0.6661909511   -5.7006903445    2.0021253475
C       -4.4345715929   -5.8724217728   -1.0643300101
C       -3.9517303079   -6.1016171331    0.1973458326
C       -2.7571932226   -4.1329223614   -0.3532039301
C        0.9671050983   -3.7329712364    3.3777203002
C       -0.1510200296   -3.5001630667    1.3819831338
C       -1.8789630934   -2.9677805115   -0.3733213505
C       -0.8476421005   -2.6432061208    0.4367715884
N       -4.6590731767   -8.1146817755    1.6748096530
N        0.3098101034   -2.9447568376    2.4612770767
N        0.0234980865   -4.8556613378    1.0979154899
O        1.4028896526   -3.2320620672    4.3998965812
S       -3.7386640036   -4.4315157646   -1.7934055300
H        1.6496519419   -5.7275635010    3.9047807555
H       -2.5324825307   -5.0951194283    1.5971445492
H        0.7900943960   -6.7649503634    1.8143833123
H       -5.1636198277   -6.5039290939   -1.5595375097
H       -2.0998843544   -2.2368309153   -1.1449974989
H       -0.5279481631   -1.6084942525    0.4490000820
H       -0.3740965115   -5.1938027332    0.2287032578
23   

C       -4.4305914662   -7.1529952507    1.0102603035
C        1.1752623162   -5.1973313372    3.1117398435
C       -3.0935323135   -5.0179580772    0.6481615753
C        0.5607148125   -5.7427064049    2.0297851794
C       -4.2294016661   -5.9874382211   -1.1628367635
C       -3.9456929403   -6.0982333654    0.1736929571
C       -2.7394096104   -4.1317516525   -0.3474070289
C        1.1098967941   -3.7711948923    3.3195837160
C       -0.1702493129   -3.5063949804    1.4268002789
C       -1.9239268504   -2.9207490960   -0.2930981808
C       -0.8934295161   -2.6200102662    0.5264911410
N       -4.8184683945   -8.0195161108    1.6844110541
N        0.4213609812   -2.9610021901    2.4461166185
N       -0.1112857725   -4.8766452969    1.1681342114
O        1.6669047565   -3.2786831484    4.2854674900
S       -3.4717718073   -4.5776497787   -1.8927720634
H        1.7175377245   -5.7938642477    3.8315864051
H       -2.7918285177   -4.9183843289    1.6869978736
H        0.5999725240   -6.8162098443    1.8587831830
H       -4.8515484186   -6.6860220396   -1.7111599705
H       -2.1675702338   -2.1615442207   -1.0298907849
H       -0.5799678411   -1.5841385205    0.5714875898
H       -0.6176805956   -5.2066050174    0.3537510304
23   

C       -4.5608080031   -7.1285785617    0.9419707400
C        1.2274071292   -5.2078969733    3.0981364948
C       -3.2334060344   -4.9750175438    0.6618855109
C        0.4572949102   -5.7571556382    2.1230521580
C       -4.0117478797   -6.1047481555   -1.2429361279
C       -3.9624353066   -6.1157198444    0.1273667052
C       -2.7324729784   -4.1487683126   -0.3200279454
C        1.2729885422   -3.7731341661    3.2401629658
C       -0.1955080624   -3.5046207081    1.4888223910
C       -1.9857242357   -2.8952032933   -0.1915814842
C       -0.9538577988   -2.6053614509    0.6283814100
N       -5.0405592619   -7.9602417811    1.6006227759
N        0.5407575414   -2.9574054321    2.4084964534
N       -0.2569699318   -4.8861611389    1.3014282991
O        1.9672466673   -3.2772617544    4.1108018046
S       -3.1736585494   -4.7198408324   -1.9324734909
H        1.8139175828   -5.8073804871    3.7797842633
H       -3.1142352342   -4.7911550270    1.7261302328
H        0.4105542351   -6.8371779912    2.0027853996
H       -4.5122435617   -6.8604590930   -1.8382148349
H       -2.2654413825   -2.1109529403   -0.8882671340
H       -0.6477762384   -1.5679296321    0.6890547843
H       -0.8711904003   -5.2157502559    0.5644288755
23   

C       -4.6771223083   -7.1515824306    0.8450590974
C        1.2674590624   -5.1200418889    3.0655365759
C       -3.4030798713   -4.9573501548    0.6419725328
C        0.3686800910   -5.6886556218    2.2204467405
C       -3.7597037728   -6.2644801428   -1.2754077835
C       -3.9724510859   -6.1717250709    0.0763832316
C       -2.7580089119   -4.1824417872   -0.2941928628
C        1.3853011608   -3.6831482850    3.1107489936
C       -0.2590792992   -3.4488237528    1.5171954899
C       -2.1036579184   -2.8780463272   -0.1179319999
C       -1.0712571609   -2.5638417472    0.6896178942
N       -5.2432010427   -7.9551884394    1.4690142448
N        0.5965544340   -2.8841481277    2.3152876082
N       -0.4003125298   -4.8347212742    1.4311834499
O        2.1945300290   -3.1701561870    3.8643894718
S       -2.8593935697   -4.8914002915   -1.9084360477
H        1.9048874148   -5.7054042578    3.7128332659
H       -3.4918784515   -4.6885624930    1.6909431788
H        0.2655366888   -6.7704457966    2.1744203595
H       -4.1085973943   -7.0873462216   -1.8896450133
H       -2.4519740497   -2.0854946306   -0.7730704156
H       -0.7916389110   -1.5187891589    0.7484261807
H       -1.1026082589   -5.1781508558    0.7846114169
23   

C       -4.8021104681   -7.1376792452    0.7149447848
C        1.3288755008   -5.0774987039    3.0190614684
C       -3.5629973988   -4.9164579333    0.6134062142
C        0.3068917876   -5.6373196104    2.3210851887
C       -3.4961980883   -6.3591916285   -1.2381008223
C       -3.9791103475   -6.1855070725    0.0340554004
C       -2.7661642862   -4.1809535933   -0.2308747392
C        1.5272688102   -3.6499355273    2.9604396113
C       -0.2776407065   -3.4066479600    1.5525577526
C       -2.1811597213   -2.8446548457   -0.0123259082
C       -1.1349829466   -2.5214048686    0.7707805541
N       -5.4649293357   -7.9174199772    1.2700792173
N        0.6932346499   -2.8504204546    2.2129730535
N       -0.5037373211   -4.7841521059    1.5741188084
O        2.4475501307   -3.1456084391    3.5807197692
S       -2.5189529369   -4.9983014550   -1.7763883809
H        2.0068431690   -5.6631624719    3.6234413976
H       -3.8617187567   -4.5850141726    1.6038676491
H        0.1412256392   -6.7117463192    2.3550703730
H       -3.6955072679   -7.2327277406   -1.8491960789
H       -2.6128321163   -2.0379910086   -0.5967931510
H       -0.8657909044   -1.4735689354    0.8286760460
H       -1.2918078063   -5.1212769405    1.0314479278
23   

C       -4.9085739771   -7.1296490440    0.5620938560
C        1.3786712691   -5.0749552006    2.9588592687
C       -3.7145291590   -4.8816015735    0.5658232904
C        0.2453207744   -5.6025303758    2.4279178194
C       -3.2479421714   -6.4319954929   -1.1355178337
C       -3.9824594092   -6.1955527049   -0.0012446990
C       -2.7823596848   -4.1728936296   -0.1513889512
C        1.6570842275   -3.6708175801    2.7796330382
C       -0.2880136037   -3.3865400633    1.5822623354
C       -2.2549737479   -2.8167435636    0.1081130942
C       -1.1828331683   -2.4930368062    0.8531899286
N       -5.6556742067   -7.8935819005    1.0244248192
N        0.7878676602   -2.8602568368    2.0857090782
N       -0.5961266937   -4.7408899263    1.7265978659
O        2.6782163918   -3.1970632136    3.2474016728
S       -2.2062977188   -5.0771367462   -1.5547679321
H        2.0881212469   -5.6696305968    3.5164850348
H       -4.2063249803   -4.5043028564    1.4577083626
H        0.0178235727   -6.6585446483    2.5547626483
H       -3.3028876140   -7.3469829660   -1.7151882547
H       -2.7872437299   -1.9976614794   -0.3655840332
H       -0.9125729393   -1.4453175264    0.9069160379
H       -1.4618974428   -5.0548976467    1.3009698594
23   

C       -5.0120338152   -7.1111436024    0.3759722681
C        1.4319686792   -5.0596344961    2.9119853449
C       -3.8395716203   -4.8549817108    0.4941284008
C        0.2158532255   -5.5478296399    2.5550676168
C       -3.0578067698   -6.4835577793   -1.0072468392
C       -3.9952214588   -6.1976693412   -0.0473748662
C       -2.7893796781   -4.1723635583   -0.0686024057
C        1.7649530262   -3.6908816687    2.5996632878
C       -0.2875306956   -3.3645763634    1.6119509345
C       -2.3132658330   -2.8046981986    0.2249111366
C       -1.2142037863   -2.4712279298    0.9249885105
N       -5.8342138497   -7.8572970559    0.7264847505
N        0.8664487907   -2.8741762609    1.9514402333
N       -0.6536624067   -4.6824181039    1.8940948336
O        2.8599130943   -3.2542765096    2.9099989337
S       -1.9545516281   -5.1419694099   -1.2877229173
H        2.1685672871   -5.6604221897    3.4261792541
H       -4.4900082757   -4.4414560607    1.2590359996
H       -0.0534145926   -6.5765198536    2.7838177904
H       -3.0012094520   -7.4265073604   -1.5399530319
H       -2.9345625644   -1.9900010154   -0.1339370295
H       -0.9426571040   -1.4232159847    0.9618913261
H       -1.5760481385   -4.9705043323    1.5849147792
23   

C       -5.8349221728   -6.1548218647    0.4978753015
C        0.9829610985   -5.0683751408    3.3132566924
C       -4.0805507456   -4.3326850754    0.2144114976
C       -0.3533730799   -5.2120136000    3.1171002220
C       -3.5489335754   -6.5460479446   -0.3662819033
C       -4.5257966553   -5.7161071525    0.1220047783
C       -2.7808332314   -4.1613058387   -0.1969907950
C        1.7142799041   -4.1017952236    2.5300405342
C       -0.1992232946   -3.4882480941    1.4110967641
C       -1.9946726664   -2.9152065596   -0.2496634384
C       -0.8463385153   -2.6578933702    0.4031810305
N       -6.8977363480   -6.5124045121    0.8113897951
N        1.0766340265   -3.3243699974    1.5900035083
N       -0.9500752827   -4.4041719260    2.1510617310
O        2.9154413049   -3.9797986171    2.6976604577
S       -2.0576198355   -5.6857778383   -0.7279832254
H        1.5273767983   -5.6546079333    4.0398205042
H       -4.7152539009   -3.5259700225    0.5679082610
H       -0.9209534325   -5.9345306065    3.6992263014
H       -3.6767723671   -7.6120780670   -0.5185088831
H       -2.4159187164   -2.1045384855   -0.8359986226
H       -0.2978406177   -1.7654343247    0.1278010271
H       -1.9377013643   -4.4636689002    1.9273421427
23   

C       -5.8964286963   -6.1723351153    0.1927414424
C        1.1136094994   -5.0191946729    3.2643811574
C       -4.1349359169   -4.3387818612    0.0778744917
C       -0.2426081590   -5.0804117282    3.2164929440
C       -3.4977203041   -6.5737348196   -0.2652225884
C       -4.5473918325   -5.7335506947    0.0052833869
C       -2.7846445017   -4.1673659525   -0.1217583624
C        1.8155255841   -4.1326772548    2.3676000326
C       -0.1643966258   -3.4417185485    1.4252695564
C       -2.0392274859   -2.9018557203   -0.1500222404
C       -0.8660428283   -2.6210437912    0.4493075904
N       -6.9932178803   -6.5293248109    0.3524637173
N        1.1305010349   -3.3533227561    1.4633388110
N       -0.8888556278   -4.2712181114    2.2837474216
O        3.0328924234   -4.0838888868    2.4040003324
S       -1.9750387007   -5.7098924085   -0.4367490483
H        1.6956437515   -5.6135129855    3.9543247719
H       -4.8278972906   -3.5243811027    0.2640882972
H       -0.7876579140   -5.7417510514    3.8862549692
H       -3.5901939696   -7.6493047634   -0.3668224816
H       -2.5144885278   -2.0831652209   -0.6812601608
H       -0.3396595647   -1.7261990414    0.1409195960
H       -1.8961197819   -4.2749015651    2.1667118042
23   

C       -5.9315236173   -6.2210762344   -0.1145131735
C        1.2331255335   -4.8326947452    3.1946317518
C       -4.2153092511   -4.3427267752   -0.0492620077
C       -0.1191366078   -4.8257389944    3.3257153443
C       -3.4821679494   -6.5728315907   -0.1269530335
C       -4.5798326398   -5.7518068739   -0.0969627932
C       -2.8534702361   -4.1378474805   -0.0185599096
C        1.8505039549   -4.0296039127    2.1665741500
C       -0.2030478689   -3.2909591309    1.4465063581
C       -2.1759453275   -2.8410428053   -0.0274044152
C       -0.9928834490   -2.4976805937    0.5197457641
N       -7.0317690063   -6.6024790083   -0.1223971822
N        1.0881216791   -3.2642718541    1.3139443081
N       -0.8461982967   -4.0329744303    2.4391267334
O        3.0630005480   -4.0427700314    2.0429469778
S       -1.9717755901   -5.6724176435   -0.0928587108
H        1.8737123599   -5.4211848572    3.8360214791
H       -4.9484483952   -3.5425808655   -0.0464941357
H       -0.5998961726   -5.4233477051    4.0969144171
H       -3.5329698336   -7.6549881928   -0.1699968665
H       -2.7116692500   -2.0394429735   -0.5260819174
H       -0.5231147695   -1.5815501912    0.1841502902
H       -1.8587358781   -3.9886002962    2.4559894144
23   

C       -5.9311262308   -6.2364325632   -0.4629427192
C        1.3106590173   -4.8551600389    3.1870105074
C       -4.2299689834   -4.3649982741   -0.1762789131
C       -0.0107034718   -4.7275433045    3.4767115083
C       -3.5326237263   -6.5979616176    0.0238703331
C       -4.6013858636   -5.7725657531   -0.2095092081
C       -2.8970837661   -4.1595119234    0.1108217185
C        1.8569059931   -4.1634677743    2.0440683717
C       -0.2073533586   -3.2991533480    1.5246571357
C       -2.2385632864   -2.8584407586    0.1328959242
C       -1.0451988291   -2.5009424778    0.6484871620
N       -7.0145642210   -6.6133637179   -0.6636899885
N        1.0560395568   -3.3856997846    1.2395453099
N       -0.7791405012   -3.9264748508    2.6331616269
O        3.0404543521   -4.2848035998    1.7794597151
S       -2.0447684445   -5.7020936672    0.2977303793
H        1.9784432619   -5.4596263305    3.7843269170
H       -4.9377686393   -3.5654743242   -0.3692897334
H       -0.4366600052   -5.2398646620    4.3364205348
H       -3.5909589739   -7.6804280657    0.0364597721
H       -2.7889499164   -2.0570958013   -0.3498427327
H       -0.5990821428   -1.5757885083    0.3060051980
H       -1.7740261314   -3.7921806875    2.7711933461
23   

C       -5.0518828856   -6.7219412951   -1.8893293164
C        1.3106593192   -4.8219176099    3.2612772775
C       -3.3874579789   -4.8600859352   -1.3969714360
C        1.2960786279   -5.3364502837    2.0037627350
C       -3.6037262710   -6.6426157294    0.1142888849
C       -4.0478795680   -6.1156759864   -1.0695376492
C       -2.4381355974   -4.4809708586   -0.4702372340
C        0.6446420644   -3.5685964044    3.5233541599
C       -0.0384487999   -3.4234872077    1.3347399354
C       -1.7053181007   -3.2237986619   -0.5244066598
C       -0.7606210701   -2.7164126152    0.2939963317
N       -5.8655834875   -7.2179299065   -2.5587927501
N       -0.0191222248   -2.8983457063    2.5216006512
N        0.6192587105   -4.6144639957    1.0214623100
O        0.6604532174   -3.1058116492    4.6507743902
S       -2.3686949047   -5.6430430552    0.8661816172
H        1.8082415037   -5.3164090151    4.0834796272
H       -3.6357675050   -4.2808880916   -2.2802908848
H        1.7967884954   -6.2780277477    1.7899174716
H       -3.9709023564   -7.5673186176    0.5447443857
H       -2.0033770901   -2.5615178080   -1.3310112960
H       -0.5854395517   -1.6484598347    0.2645277604
H        0.5582310556   -4.9319847667    0.0612479307
