32

C      2.62951   -2.03814   -3.46060
C      0.89034   -0.88766   -4.66840
C      3.38421   -2.15640   -4.63490
C      1.62324   -0.99786   -5.84120
C      1.37905   -1.40638   -3.45150
C      2.88210   -1.63442   -5.83778
C     -1.44966   -2.36348   -0.92918
C      0.55009   -1.32438   -2.18775
C      5.35505   -1.99600   -8.51925
C      4.85598   -2.18972   -7.09396
C     -0.67171   -2.25733   -2.23258
N     -0.16674   -3.64633   -2.64146
O      5.47311   -0.62973   -8.88994
O      3.51382   -1.68474   -7.02935
H      3.05057   -2.41928   -2.53141
H     -0.06497   -0.36634   -4.69278
H      4.35347   -2.63957   -4.59568
H      1.25887   -0.58200   -6.77558
H     -0.80914   -2.70028   -0.10681
H     -1.83217   -1.37463   -0.66454
H     -2.30789   -3.03783   -1.01124
H      0.16520   -0.31182   -2.02827
H      1.15954   -1.56767   -1.30927
H      4.63563   -2.43860   -9.21303
H      6.30550   -2.53699   -8.62825
H      5.48935   -1.64517   -6.38129
H      4.86548   -3.25776   -6.83592
H     -1.32720   -1.96349   -3.05633
H     -0.92947   -4.28072   -2.90335
H      0.36166   -4.08581   -1.87839
H      0.48172   -3.53613   -3.44119
H      6.28028   -0.26237   -8.49779
