25

C      1.87621    1.79082    0.88812
C      0.54682    1.61665    0.49127
C      2.19037    2.08975    2.22881
C     -0.42246    1.75334    1.48814
C      0.02725    2.05288    2.80230
C     -2.18319    1.89104    2.70455
C     -3.59595    1.85202    3.19818
C     -4.93948    3.44856    6.22473
C     -4.94854    2.48121    5.05412
N      1.28097    2.22776    3.20843
N     -1.81068    1.66341    1.46268
N     -1.13034    2.12554    3.56118
O     -4.78553    4.79767    5.79726
O     -3.66730    2.57181    4.42291
H      2.68339    1.69908    0.16742
H      0.27646    1.38836   -0.53598
H      3.22909    2.22415    2.52375
H     -4.25660    2.28527    2.43635
H     -3.90284    0.80612    3.35440
H     -4.14339    3.16204    6.92801
H     -5.89593    3.39298    6.75161
H     -5.73553    2.76160    4.34014
H     -5.13014    1.45153    5.39796
H     -1.21072    2.36708    4.54086
H     -3.99870    4.82430    5.22810
