31

C     -4.37412   -6.55584    3.71758
C     -2.02021   -6.43085    3.01590
C     -0.92244   -5.65146    2.66376
C     -1.02634   -0.36768    0.71730
C     -2.29352   -3.71117    2.97065
C     -0.63184   -1.68331    0.62272
C     -0.40443   -0.94238    2.69245
C     -3.21660   -5.77416    3.33989
C     -1.04210   -4.25735    2.64445
C      3.25632   -3.16166    1.92156
C      2.49191   -2.62745    3.13869
C      1.19301   -3.38780    3.44446
C      0.16400   -3.39795    2.29557
N     -5.27885   -7.22473    4.01686
N     -0.87941    0.08479    2.01290
N     -3.36003   -4.43990    3.31530
N     -0.22094   -2.04664    1.89486
H     -1.96645   -7.51454    3.03962
H      0.01969   -6.12779    2.40074
H     -1.39941    0.27595   -0.06884
H     -2.44738   -2.63530    2.94474
H     -0.60520   -2.38057   -0.20306
H     -0.17207   -0.93994    3.74853
H      3.44526   -4.23851    2.00914
H      2.71030   -2.98805    0.98854
H      4.22505   -2.66220    1.82360
H      2.27771   -1.56364    2.99519
H      3.13058   -2.69572    4.02697
H      0.71999   -2.98738    4.34803
H      1.42923   -4.43351    3.67101
H      0.64426   -3.84840    1.42139
