31

C     -4.53436   -6.02797    3.45193
C     -3.36225   -4.48103    1.93751
C     -2.21881   -3.74954    1.63252
C     -0.88759    0.20247    0.93436
C     -1.22311   -4.62373    3.62514
C     -0.86806   -0.73394    1.94548
C      0.21713   -1.46926    0.16553
C     -3.35907   -5.25878    3.10451
C     -1.10886   -3.81154    2.48568
C      3.28876   -1.77102    4.15346
C      2.35269   -1.98088    2.95876
C      1.09971   -2.77682    3.33981
C      0.16916   -3.04841    2.14475
N     -5.49908   -6.63280    3.69458
N     -0.20788   -0.26607   -0.17187
N     -2.31201   -5.33294    3.94016
N     -0.15637   -1.80888    1.44064
H     -4.23993   -4.45429    1.29962
H     -2.19281   -3.12500    0.74447
H     -1.35172    1.18040    0.94159
H     -0.40169   -4.71121    4.33052
H     -1.29183   -0.74158    2.93947
H      0.79864   -2.13786   -0.45770
H      2.78560   -1.22128    4.95693
H      3.63021   -2.72672    4.56725
H      4.17445   -1.19752    3.86272
H      2.88844   -2.50992    2.15956
H      2.06013   -1.01069    2.54462
H      0.54380   -2.24798    4.12348
H      1.40687   -3.73756    3.76659
H      0.72809   -3.65302    1.41999
