34

C      2.45657    0.50262   -1.30557
C      0.28297   -0.47135   -1.62397
C      2.85933   -0.65785   -0.65263
C      1.15180    0.61082   -1.80610
C      1.90862   -1.69938   -0.52824
C      4.25738   -0.79095   -0.09949
C     -1.96131    4.79347   -4.88876
C     -3.94419    2.82024   -3.26604
C      2.25125   -2.99838    0.15893
C     -0.57941    3.30604   -3.57170
C     -0.49717    1.92110   -2.94679
N      0.66283   -1.59690   -1.00110
N     -1.89915    3.52366   -4.16333
O      3.26672   -3.67936   -0.60097
O      0.83326    1.77925   -2.43726
O     -2.81305    3.65694   -3.04018
H      3.13778    1.33984   -1.43604
H     -0.74146   -0.44749   -1.98411
H      4.23754   -1.00093    0.97636
H      4.78523   -1.62019   -0.57691
H      4.82823    0.12904   -0.25103
H     -2.97997    4.94450   -5.25391
H     -1.29097    4.73246   -5.75158
H     -1.67410    5.65167   -4.26236
H     -4.59584    2.96479   -2.39978
H     -3.65218    1.76577   -3.34114
H     -4.48107    3.10832   -4.17885
H      2.61531   -2.80294    1.17955
H      1.33570   -3.59629    0.22073
H     -0.34066    4.07114   -2.81707
H      0.15772    3.38026   -4.37749
H     -0.70098    1.15219   -3.70195
H     -1.22538    1.82610   -2.13403
H      3.48780   -4.49870   -0.13144
