18   

C        4.6331491873    1.3459717159    0.7538188917
C        5.8139913047    1.1162703812    0.0578453476
C        3.5008874128    0.5758692131    0.4819786556
C        5.8525199433    0.1176146980   -0.9129813370
C        3.5148812075   -0.4449182471   -0.4880718959
C        4.7243046458   -0.6614958947   -1.1988627788
C        2.2836726517   -1.2595635898   -0.7409971179
C        0.9255139083   -0.7892450168   -0.2311458743
O        2.3102354744   -2.3131859061   -1.3628699842
O        4.8394511411   -1.6001104754   -2.1827786018
H        4.5933089309    2.1217182656    1.5103743135
H        6.6964261275    1.7112870904    0.2677220686
H        2.6063406232    0.7855767723    1.0569101441
H        6.7762165352   -0.0470332584   -1.4536436806
H        0.7670943095    0.2586395667   -0.4992925963
H        0.8758695764   -0.9036704653    0.8547684512
H        0.1296920307   -1.3874227990   -0.6844012243
H        5.7506983821   -1.6457532959   -2.5119222237
18   

C        4.6560724812    1.3454993799    0.7980874299
C        5.8087078218    1.1619600396    0.0407758360
C        3.5350944513    0.5453601376    0.5677991315
C        5.8294926850    0.1814540698   -0.9507613701
C        3.5390812337   -0.4554416673   -0.4197620245
C        4.7108303421   -0.6248444921   -1.1941918294
C        2.3294741382   -1.3189268933   -0.6179731070
C        0.9406442122   -0.7750315493   -0.3057166127
O        2.4123600260   -2.4711546229   -1.0185709282
O        4.7846273720   -1.5399478195   -2.2039715717
H        4.6309741187    2.1060780613    1.5704849502
H        6.6827909316    1.7791378945    0.2191909917
H        2.6587918185    0.7057314551    1.1858780578
H        6.7286216321    0.0543130792   -1.5406907402
H        0.8585674597    0.2595979722   -0.6492543744
H        0.7584054767   -0.8184483892    0.7710762299
H        0.1829321572   -1.3740015356   -0.8189608174
H        5.6888887018   -1.5978332717   -2.5507657184
18   

C        4.7236065396    1.2900794725    0.8579620699
C        5.8289631480    1.1403972242    0.0240847029
C        3.5968832321    0.4855203685    0.6732469358
C        5.7968187357    0.1891018198   -0.9967312145
C        3.5526894013   -0.4797736068   -0.3443829146
C        4.6707256631   -0.6193358274   -1.1921490623
C        2.3474367075   -1.3659700565   -0.4960315700
C        0.9502040002   -0.7750525742   -0.3656795043
O        2.4567350047   -2.5681761037   -0.6810882383
O        4.6741206595   -1.5111483217   -2.2252914747
H        4.7408020738    2.0260538128    1.6540205800
H        6.7075004160    1.7604648984    0.1670008406
H        2.7546128062    0.6093655167    1.3450189706
H        6.6581192997    0.0867051307   -1.6450145483
H        0.8937542820    0.1644775750   -0.9218704853
H        0.7197930048   -0.5888445606    0.6861082917
H        0.2119769125   -1.4706940826   -0.7747132513
H        5.5609903419   -1.5832023050   -2.6128995126
18   

C        4.7769623512    1.2316678243    0.9525428275
C        5.8308184871    1.1371687974    0.0451650503
C        3.6523811039    0.4162228940    0.8024124374
C        5.7505652040    0.2283841193   -1.0123147384
C        3.5638512259   -0.4991184923   -0.2538192506
C        4.6258046736   -0.5893742864   -1.1706752453
C        2.3643005783   -1.4049516050   -0.3769963154
C        0.9631898520   -0.8087634515   -0.4041706151
O        2.4840695210   -2.6188476484   -0.3551165292
O        4.5692351803   -1.4487989361   -2.2294446201
H        4.8335873289    1.9317152208    1.7785925791
H        6.7073875265    1.7655568195    0.1612345310
H        2.8511561678    0.4895718604    1.5296126614
H        6.5719488971    0.1659660142   -1.7151756272
H        0.7939692269   -0.3288226124   -1.3717075205
H        0.8460082836   -0.0657339154    0.3877181387
H        0.2178484549   -1.5966138094   -0.2632962044
H        5.4326269861   -1.5044358266   -2.6700792252
18   

C        4.8386263141    1.1837736822    1.0318084421
C        5.8391263485    1.1234456935    0.0622293616
C        3.7104653072    0.3667376636    0.9204153735
C        5.7020306082    0.2466452856   -1.0169354536
C        3.5680907327   -0.5143591444   -0.1557819405
C        4.5729347478   -0.5718923700   -1.1338127692
C        2.3581691156   -1.4159331338   -0.2556184048
C        0.9906633788   -0.8060584927   -0.5242897036
O        2.4380934431   -2.6069932263   -0.0090216900
O        4.4535352528   -1.4055778308   -2.2079313446
H        4.9388038672    1.8590081070    1.8741964277
H        6.7180247697    1.7535657579    0.1470505254
H        2.9441385459    0.4108641034    1.6870666452
H        6.4818036102    0.2098576904   -1.7673893675
H        0.9020835812   -0.5743625974   -1.5889900495
H        0.8687408607    0.1145040486    0.0517356624
H        0.2026520553   -1.5106195620   -0.2442487370
H        5.2844454446   -1.4338375332   -2.7100988760
18   

C        4.9142366621    1.1369594149    1.1193395533
C        5.8512055840    1.1056346524    0.0868137853
C        3.7790521339    0.3245279131    1.0545416343
C        5.6429451816    0.2631493569   -1.0082887411
C        3.5701342767   -0.5278990587   -0.0328433599
C        4.5065760969   -0.5506179829   -1.0771578262
C        2.3326806703   -1.3957109205   -0.1114142168
C        1.0784386102   -0.8460173322   -0.7723221447
O        2.3184521221   -2.5209620057    0.3569035494
O        4.3134657012   -1.3497968279   -2.1669316008
H        5.0674404302    1.7880054631    1.9727147709
H        6.7346536957    1.7333025922    0.1344138297
H        3.0568450780    0.3492428796    1.8638800873
H        6.3722995932    0.2506654583   -1.8085874301
H        1.2780004019   -0.6567859141   -1.8303913351
H        0.7866784061    0.0903330817   -0.2900631146
H        0.2598384145   -1.5659184135   -0.6856044364
H        5.1000012874   -1.3407313035   -2.7372611291
18   

C        4.9701231369    1.0775142257    1.1664755468
C        5.8557061492    1.0796502077    0.0891751171
C        3.8243295764    0.2788919426    1.1243309099
C        5.5867949816    0.2831576623   -1.0270893032
C        3.5543983572   -0.5279086104    0.0145702431
C        4.4399964662   -0.5176539799   -1.0743659364
C        2.2910481144   -1.3567723676   -0.0306313630
C        1.1372999287   -0.9255174558   -0.9244429772
O        2.1822206524   -2.3746476185    0.6332516641
O        4.1962936775   -1.2792269980   -2.1808209468
H        5.1704855384    1.6926072819    2.0365915183
H        6.7469347550    1.6973358512    0.1191513501
H        3.1399481427    0.2782798515    1.9664980303
H        6.2787028387    0.2955209590   -1.8599798446
H        1.4641052039   -0.9007915748   -1.9669981195
H        0.8000986084    0.0722055982   -0.6322959013
H        0.3045053533   -1.6278119305   -0.8293017727
H        4.9509528559   -1.2383900021   -2.7917712701
18   

C        5.0275430067    1.0331214713    1.1988493491
C        5.8693778776    1.0699379551    0.0873057693
C        3.8679040532    0.2546136141    1.1683375815
C        5.5444604711    0.3277519692   -1.0519120824
C        3.5428392847   -0.4978245275    0.0325380724
C        4.3838291189   -0.4537533436   -1.0906145034
C        2.2553888184   -1.2841796603    0.0325155930
C        1.1591155117   -0.9687966964   -0.9756991368
O        2.0621335897   -2.1526924064    0.8700791312
O        4.0927658223   -1.1675876226   -2.2168908940
H        5.2720944598    1.6059350900    2.0863599502
H        6.7711715385    1.6724483420    0.1090965335
H        3.2161630608    0.2267310981    2.0359154761
H        6.2053655535    0.3665687124   -1.9088132853
H        1.4157898383   -1.3922718303   -1.9496871036
H        1.0486540358    0.1141935694   -1.0734662684
H        0.2091357811   -1.3948519441   -0.6417008555
H        4.8195641446   -1.0957366592   -2.8582424871
18   

C        5.0238352532    0.8999935752    1.2659795936
C        5.8416175541    0.9702190831    0.1386759641
C        3.8345499052    0.1689903836    1.2190311664
C        5.4646518463    0.3073259722   -1.0328092010
C        3.4536816969   -0.5034781805    0.0479737210
C        4.2747103037   -0.4279446477   -1.0907953037
C        2.1348636819   -1.2265628262    0.0548249545
C        1.1353211124   -1.0626811715   -1.0823094854
O        1.8274942007   -1.9241431991    1.0129604984
O        3.9434464555   -1.0671352528   -2.2504016035
H        5.3089631881    1.4111600290    2.1786760403
H        6.7657730964    1.5371876286    0.1735382484
H        3.2018541389    0.1189389329    2.0999344543
H        6.1097984366    0.3710813264   -1.9001616050
H        1.3051755905   -1.8365847635   -1.8352861410
H        1.2542615528   -0.0793903149   -1.5448779285
H        0.1156804610   -1.1523573606   -0.6980688909
H        4.6519614264   -0.9606555275   -2.9073090965
18   

C        5.0770851714    0.8538720768    1.2798328161
C        5.8709475967    0.9418176735    0.1379456055
C        3.8596999682    0.1714424311    1.2314795050
C        5.4437144687    0.3423623743   -1.0495386123
C        3.4201689122   -0.4326382186    0.0407205300
C        4.2257609939   -0.3456341137   -1.1122399339
C        2.0824425880   -1.1168180306    0.0737127527
C        1.1450276540   -1.1282146813   -1.1274541845
O        1.6868705618   -1.6163858788    1.1214236485
O        3.8643374860   -0.9313051522   -2.2907180332
H        5.4021327764    1.3140645482    2.2062141351
H        6.8167987692    1.4716882706    0.1745171704
H        3.2517164542    0.1132785902    2.1292580519
H        6.0745858917    0.4160783790   -1.9265523506
H        1.3817962651   -1.9792898494   -1.7712177181
H        1.2539712932   -0.2015621511   -1.6969088682
H        0.1083094061   -1.2131620020   -0.7905224725
H        4.5637833001   -0.8096063692   -2.9547065993
18   

C        5.0830093776    0.7998034478    1.3193374855
C        5.8609602324    0.8893186928    0.1682668148
C        3.8307047940    0.1846207058    1.2692036549
C        5.3831657786    0.3571680714   -1.0306949325
C        3.3329246644   -0.3496816010    0.0655402595
C        4.1299658574   -0.2644082394   -1.0982635654
C        1.9669680649   -0.9783938683    0.1183463243
C        1.1066689564   -1.2078799281   -1.1190038703
O        1.4736853313   -1.2520117208    1.2086311714
O        3.7350372190   -0.7845918132   -2.2961000914
H        5.4471610398    1.2072298653    2.2558398056
H        6.8338607768    1.3675797596    0.2066519256
H        3.2452426269    0.1312722144    2.1820303124
H        6.0042421727    0.4301041032   -1.9147463726
H        1.4613514341   -2.0904194720   -1.6576409524
H        1.1513399878   -0.3346817066   -1.7748376161
H        0.0656074441   -1.3687787809   -0.8255554202
H        4.4289751683   -0.6537156926   -2.9640907619
18   

C        5.1368197548    0.7417163040    1.3248051848
C        5.9095594405    0.8403127997    0.1720257136
C        3.8570325086    0.1876727448    1.2623507863
C        5.3966424897    0.3825852308   -1.0421945181
C        3.3234184494   -0.2794076574    0.0452144916
C        4.1148238214   -0.1761445367   -1.1239601967
C        1.9337491216   -0.8573044862    0.0966843421
C        1.2005330963   -1.4089626140   -1.1209809501
O        1.3396025054   -0.8958518344    1.1707119722
O        3.6851390157   -0.6003468287   -2.3470149072
H        5.5263533442    1.0945460185    2.2731866240
H        6.9041072917    1.2707884031    0.2201115366
H        3.2829163668    0.1269120793    2.1818019816
H        6.0121750446    0.4673545638   -1.9290721777
H        1.7624869815   -2.2430102242   -1.5489829986
H        1.0763610829   -0.6226348515   -1.8699042218
H        0.2104204395   -1.7704839864   -0.8294344726
H        4.3713632348   -0.4426377756   -3.0171390519
18   

C        5.1399420448    0.6652476880    1.3459477697
C        5.9096658108    0.7742020583    0.1910289423
C        3.8354123420    0.1734434769    1.2713793555
C        5.3676172617    0.3938497786   -1.0379934163
C        3.2784060294   -0.2209447857    0.0400085805
C        4.0604116985   -0.1001422885   -1.1308293338
C        1.8700857630   -0.7495810726    0.0729884152
C        1.2736278953   -1.6023507507   -1.0409398652
O        1.1817370469   -0.5623994570    1.0720154821
O        3.5850193416   -0.4302263687   -2.3663124106
H        5.5512228660    0.9613316290    2.3044996433
H        6.9234485356    1.1558819285    0.2485410062
H        3.2594727926    0.0975912324    2.1886604471
H        5.9783454237    0.4912356445   -1.9268857659
H        2.0021361445   -2.3446628395   -1.3768520851
H        0.9848897722   -0.9648386830   -1.8805911525
H        0.3865842653   -2.1271136746   -0.6754443194
H        4.2577090644   -0.2491473086   -3.0442422587
18   

C        4.6333765097    1.9329423585    0.1016801746
C        5.7639056306    1.1271491830   -0.0185660896
C        3.3673870202    1.3994544985   -0.1487914753
C        5.6227470753   -0.2114810966   -0.3929140542
C        3.2150583195    0.0531707736   -0.5233993714
C        4.3596345266   -0.7594393626   -0.6478056306
C        1.8128965991   -0.4423375250   -0.7404684171
C        1.3901694075   -1.8645661329   -0.3937034045
O        0.9522594038    0.3377799710   -1.1334834336
O        4.2780517493   -2.0667819492   -1.0307516728
H        4.7339941142    2.9734953076    0.3893276159
H        6.7477671144    1.5406578712    0.1757581168
H        2.4961277025    2.0397657060   -0.0490819437
H        6.5116931339   -0.8227490945   -0.4862535160
H        1.9515946762   -2.2217011578    0.4735269135
H        1.5804965377   -2.5231786225   -1.2450699132
H        0.3233533006   -1.8887862874   -0.1552908437
H        5.1679991065   -2.4495717087   -1.1106360617
18   

C        4.6038661714    1.9101857913    0.1632582083
C        5.7455794861    1.1228537081    0.0179807998
C        3.3485204632    1.3794519201   -0.1423504704
C        5.6254970699   -0.1946675582   -0.4332625621
C        3.2220406354    0.0596335647   -0.6014095864
C        4.3721699060   -0.7365985861   -0.7421786713
C        1.8346911296   -0.4603524828   -0.8603795496
C        1.3845632734   -1.8153248025   -0.3308013035
O        1.0270533710    0.2333182828   -1.4650992017
O        4.2955827460   -2.0249563649   -1.1863142812
H        4.6882535992    2.9331521383    0.5125754770
H        6.7213263585    1.5335912388    0.2545076983
H        2.4634032035    1.9974370611   -0.0263292641
H        6.5209613838   -0.7939308346   -0.5409951853
H        1.9340145279   -2.0605407293    0.5818596843
H        1.5752780815   -2.5855247219   -1.0825799872
H        0.3151898344   -1.7905192955   -0.1045832275
H        5.1867932837   -2.4005932489   -1.2837803291
18   

C        4.5677678718    1.8358731815    0.2279266887
C        5.7211093690    1.0771142905    0.0291911738
C        3.3209929032    1.3122003974   -0.1228594898
C        5.6201357405   -0.2049584323   -0.5187070315
C        3.2153089642    0.0315659743   -0.6802449048
C        4.3744688454   -0.7369898429   -0.8717059594
C        1.8424448056   -0.5069535345   -0.9982155475
C        1.3227382166   -1.7550009545   -0.2980323504
O        1.1161397421    0.0785887642   -1.7873617398
O        4.3077437585   -1.9915254122   -1.4050397678
H        4.6371514177    2.8311647614    0.6523997643
H        6.6905317431    1.4820462123    0.2993381208
H        2.4257929107    1.9064032474    0.0313084880
H        6.5229381364   -0.7844269082   -0.6661732096
H        1.5658859457   -1.7084951830    0.7665452235
H        1.7834376705   -2.6454595364   -0.7323474935
H        0.2375726066   -1.8244750626   -0.4126370941
H        5.2019936780   -2.3428420664   -1.5520924901
18   

C        4.6407450300    1.8267861182    0.3526221413
C        5.8060266905    1.0973508786    0.1184338651
C        3.4030623344    1.3038490689   -0.0309010369
C        5.7247280048   -0.1547739198   -0.4966293052
C        3.3155562498    0.0559228380   -0.6556509592
C        4.4872823275   -0.6831429588   -0.8816532247
C        1.9654372511   -0.5117718287   -1.0299057302
C        1.3704562762   -1.6467105755   -0.2089649955
O        1.3447822698   -0.0803508760   -1.9876716388
O        4.4351915064   -1.9127842397   -1.4723294054
H        4.6941744219    2.7990207231    0.8295834687
H        6.7687037262    1.5009324913    0.4135571352
H        2.4994924441    1.8767645339    0.1506246199
H        6.6351818453   -0.7148104078   -0.6699197549
H        1.2538396155   -1.3262899328    0.8294169392
H        2.0321405355   -2.5158516797   -0.2421347759
H        0.3926910164   -1.9285876534   -0.6093852425
H        5.3327493268   -2.2407711115   -1.6491151042
18   

C        4.6248892635    1.7745558552    0.4295402151
C        5.8108742096    1.0983047658    0.1447064955
C        3.4005361016    1.2315423130    0.0308123680
C        5.7631400145   -0.1218562829   -0.5345103544
C        3.3466797739    0.0168816565   -0.6579505931
C        4.5387635871   -0.6692659022   -0.9339327801
C        2.0198763456   -0.5797356977   -1.0753633099
C        1.2887905584   -1.5108246800   -0.1210728169
O        1.5206570610   -0.3175839679   -2.1559872953
O        4.5151575071   -1.8730341074   -1.5773385253
H        4.6524069207    2.7216788555    0.9565907732
H        6.7633749316    1.5175500745    0.4507928006
H        2.4818685360    1.7654947256    0.2502823853
H        6.6885635722   -0.6432197815   -0.7451351691
H        1.1277898307   -1.0074188338    0.8355407528
H        1.8905382098   -2.4085652739    0.0435625453
H        0.3221834080   -1.8001809861   -0.5427706370
H        5.4178807929   -2.1576901303   -1.7965586261
18   

C        4.6013856377    1.6757177595    0.5019541774
C        5.8138784885    1.0740255628    0.1664614392
C        3.3982152900    1.0905254321    0.0986739630
C        5.8143189930   -0.1140558799   -0.5688189329
C        3.3916856427   -0.0971020480   -0.6391016682
C        4.6117915333   -0.7049122383   -0.9729690823
C        2.0871838922   -0.7101778706   -1.0964170613
C        1.1356165823   -1.2997624730   -0.0663150795
O        1.7301550443   -0.6361832941   -2.2595425139
O        4.6386704101   -1.8760898281   -1.6734255887
H        4.5922986155    2.5995610690    1.0694270355
H        6.7500531403    1.5271077359    0.4746851426
H        2.4605692310    1.5735491509    0.3525754657
H        6.7604455586   -0.5765492530   -0.8208596042
H        1.0916701526   -0.6580092361    0.8170458490
H        1.4931063111   -2.2894953042    0.2299046628
H        0.1322770287   -1.3935871292   -0.4909300930
H        5.5465805602   -2.0886044950   -1.9453061677
18   

C        4.5873769086    1.5891796152    0.5710017108
C        5.8160856768    1.0573687842    0.1832751044
C        3.4013773660    0.9691332496    0.1695989583
C        5.8506140266   -0.0972958336   -0.6016767409
C        3.4262035409   -0.1879580558   -0.6189376908
C        4.6666470136   -0.7254563329   -1.0048220246
C        2.1378869441   -0.8202344679   -1.0829247623
C        1.0683693041   -1.1964285336   -0.0661135120
O        1.8879807669   -0.9476320896   -2.2702253857
O        4.7369427880   -1.8663122686   -1.7506832480
H        4.5521594086    2.4877262244    1.1768107620
H        6.7387813670    1.5386815377    0.4893586722
H        2.4546728718    1.4086705900    0.4640795750
H        6.8099936581   -0.5059952467   -0.8934582806
H        0.9027651430   -0.3783691007    0.6383479100
H        1.3913595466   -2.0829346227    0.4860558235
H        0.1274311390   -1.4194339045   -0.5769846612
H        5.6446562749   -2.0152458758   -2.0614473769
18   

C        4.5896340337    1.4929921052    0.6481577387
C        5.8229801637    1.0376018145    0.1887693468
C        3.4169433033    0.8414435645    0.2592721180
C        5.8756161036   -0.0743754226   -0.6531217973
C        3.4536729761   -0.2734179294   -0.5920953886
C        4.7060732995   -0.7363143768   -1.0453557391
C        2.1758319672   -0.9312762710   -1.0345160578
C        1.0531007930   -1.1592818741   -0.0315637751
O        1.9925979962   -1.2542376615   -2.1979606306
O        4.8118149405   -1.8395154842   -1.8419064545
H        4.5398553677    2.3567574351    1.3016821619
H        6.7356596522    1.5434752027    0.4851555365
H        2.4673312771    1.2240321361    0.6168950376
H        6.8402140692   -0.4256876511   -0.9976878728
H        0.5363893589   -0.2181055325    0.1714392976
H        1.4657212052   -1.5555513174    0.9000834886
H        0.3356695881   -1.8805168949   -0.4332071978
H        5.7172438501   -1.9336537770   -2.1785157811
18   

C        4.5826630336    1.4237077841    0.7108271037
C        5.8176378257    1.0461840805    0.1930161674
C        3.4274337081    0.7374722381    0.3308361422
C        5.8899828877   -0.0242269402   -0.6980408447
C        3.4775569990   -0.3374059328   -0.5740333023
C        4.7395324279   -0.7229792592   -1.0840178238
C        2.2133872515   -1.0303569648   -0.9864765866
C        1.0264231533   -1.0897521739   -0.0326486733
O        2.0871653499   -1.5527736810   -2.0846796626
O        4.8844432345   -1.7840915713   -1.9299182764
H        4.5174258897    2.2542810788    1.4048011545
H        6.7168340800    1.5792327857    0.4829588675
H        2.4800892516    1.0673820096    0.7423473662
H        6.8577371632   -0.3155334962   -1.0868927882
H        0.4810644233   -0.1429382100   -0.0592340742
H        1.3745397314   -1.2829943158    0.9855296631
H        0.3511986944   -1.8973931692   -0.3294628659
H        5.7934626682   -1.8355825353   -2.2650894620
18   

C        4.6207898916    1.3814596314    0.7150202144
C        5.8377370444    1.0479824224    0.1324725474
C        3.4647988220    0.6795402156    0.3686603171
C        5.8910274701    0.0068760168   -0.7919510973
C        3.4892121383   -0.3712249734   -0.5686232400
C        4.7405651768   -0.7083120741   -1.1476953455
C        2.2250232610   -1.0910941863   -0.9251415909
C        0.9827378676   -0.9537621921   -0.0512941173
O        2.1364666913   -1.8138890230   -1.9086446949
O        4.8848070272   -1.7305599123   -2.0401919632
H        4.5697221723    2.1894927992    1.4362833748
H        6.7377640123    1.5924513996    0.3975938843
H        2.5379600280    0.9820614349    0.8421455147
H        6.8462516320   -0.2483880831   -1.2335698885
H        0.5472107745    0.0407886811   -0.1775967517
H        1.2438507454   -1.1115373015    0.9984623394
H        0.2392570423   -1.7023677105   -0.3401116019
H        5.7951705459   -1.7736696697   -2.3721107280
18   

C        4.6296201296    1.3631536599    0.7326776713
C        5.8322206856    1.0850063271    0.0954469097
C        3.4864214599    0.6250096212    0.4213919426
C        5.8829987978    0.0661347997   -0.8527034735
C        3.5073892624   -0.4113221858   -0.5332159435
C        4.7452474011   -0.6839005129   -1.1766033256
C        2.2589105601   -1.1798849009   -0.8387197265
C        0.9501179633   -0.8554548692   -0.1252595173
O        2.2285397163   -2.0876898648   -1.6594186106
O        4.8890443095   -1.6621162850   -2.1171690446
H        4.5801025859    2.1545147768    1.4723126509
H        6.7226535412    1.6565268303    0.3347956185
H        2.5753353124    0.8835827970    0.9479434301
H        6.8262915243   -0.1410745210   -1.3425142192
H        0.6576814687    0.1772124660   -0.3326086908
H        1.0667093603   -0.9982211498    0.9522097171
H        0.1566413355   -1.5196080982   -0.4802676525
H        5.8023436516   -1.6989124153   -2.4413937953
