24   

C       -0.6318315287    1.1988612262   -0.0484658118
C        0.5635715259    0.6605188954    0.3739303750
C        1.5239331323    1.4391078584    1.2314323659
C       -1.5791792991    0.4516373625   -0.9373049985
C       -0.1028344642   -1.5118027238   -0.6638327934
C        3.6642266366    1.7571067249    2.4183334035
C        3.6140670278    0.3896207190    0.3402218098
N        0.8921958352   -0.6570094359   -0.0218197457
N       -0.8609509059   -0.6610283558   -1.5747579454
N        2.8753750869    1.0858841436    1.3892197810
O        1.1567470494    2.4617990752    1.8123676603
H       -0.8711251256    2.2200126899    0.2243893222
H       -2.4123232599    0.0687474601   -0.3389171973
H       -1.9813549161    1.1265788788   -1.6999147318
H        0.3931780381   -2.3096050565   -1.2253466639
H       -0.7649634767   -1.9569132984    0.0867918087
H        4.6032986043    1.2226529481    2.5930879998
H        3.1146699830    1.7782231891    3.3653421851
H        3.8897188309    2.7842080036    2.1140188674
H        4.6066346577    0.8353932143    0.2194445398
H        3.1132138371    0.4872313067   -0.6285388280
H        3.7330498960   -0.6689138426    0.5890654271
H        1.7508701232   -1.0789436687    0.3121156903
H       -1.4668368388   -1.2045481037   -2.1800487284
24   

C       -0.5934046010    1.1813166212   -0.0816916385
C        0.5506660577    0.6066449144    0.4227074343
C        1.4836639374    1.3522963927    1.3368038258
C       -1.5138475147    0.4468752627   -1.0088749953
C       -0.1452144511   -1.5686718807   -0.5811242156
C        3.6715759487    1.7242297997    2.4205036576
C        3.5624221005    0.4635352435    0.2709175877
N        0.8437611481   -0.7366878973    0.0991048189
N       -0.8060258844   -0.7160191296   -1.5644146198
N        2.8599294072    1.0801357111    1.3926766742
O        1.0593535571    2.2477287168    2.0704236607
H       -0.8074742992    2.2159713540    0.1588826775
H       -2.4002475028    0.1194749874   -0.4557834991
H       -1.8351793511    1.1131459698   -1.8161408116
H        0.3497429448   -2.4043980488   -1.0854990764
H       -0.8727718995   -1.9610614256    0.1376780793
H        4.6520794618    1.2433290856    2.4937472397
H        3.1866493212    1.6380468546    3.3985589445
H        3.8118311419    2.7837187438    2.1836185895
H        4.5113869189    0.9791514745    0.0921862464
H        2.9851674551    0.5473097822   -0.6556941372
H        3.7673958339   -0.5909026056    0.4775614153
H        1.6637767650   -1.1800259913    0.4981709040
H       -1.3962928835   -1.2536226950   -2.1901290403
24   

C       -0.5461899534    1.1741522450   -0.1123214125
C        0.5351287807    0.5561018168    0.4694374941
C        1.4516438287    1.2601362917    1.4344762790
C       -1.4441601828    0.4587147455   -1.0758873894
C       -0.2048213590   -1.6100483146   -0.5156395275
C        3.6781028496    1.6903725504    2.4190756439
C        3.5024156685    0.5405694644    0.2060780242
N        0.7783466581   -0.8100112868    0.2099143187
N       -0.7608743500   -0.7513797821   -1.5581073606
N        2.8415709678    1.0800980369    1.3914054907
O        0.9954407656    2.0015302817    2.3081198512
H       -0.7233249252    2.2224006253    0.0962054436
H       -2.3769923170    0.1884178932   -0.5703256729
H       -1.6836257877    1.1167532108   -1.9175994539
H        0.2799314668   -2.4801383965   -0.9692759946
H       -0.9945761785   -1.9504373036    0.1628862204
H        4.6799538596    1.2496728617    2.4099242705
H        3.2505869016    1.5191385957    3.4125418150
H        3.7624306253    2.7680745956    2.2470683437
H        4.4023992766    1.1214171275   -0.0194102302
H        2.8595852168    0.6061490938   -0.6777459929
H        3.7854367323   -0.5037989416    0.3667310620
H        1.5530706636   -1.2788610668    0.6671804625
H       -1.3372160121   -1.2768685652   -2.2067269194
24   

C       -0.4131250148    1.1747653975   -0.0798076382
C        0.5973904712    0.5102105026    0.5713560688
C        1.5252271129    1.1715821667    1.5594084122
C       -1.3065921196    0.4784048561   -1.0615712095
C       -0.2146019383   -1.6397472768   -0.3824217641
C        3.7968788297    1.6857300942    2.4007599975
C        3.5080998980    0.6444422601    0.1420290526
N        0.7736027556   -0.8744890383    0.3732151711
N       -0.6704000701   -0.7824433792   -1.4748053491
N        2.9145363551    1.1068763578    1.3938551789
O        1.0793556222    1.7413016975    2.5588715580
H       -0.5338621788    2.2382775467    0.0856852534
H       -2.2744259726    0.2754840857   -0.5914805547
H       -1.4715103112    1.1204772306   -1.9329882506
H        0.2434436446   -2.5472526558   -0.7879838952
H       -1.0549864994   -1.9179460586    0.2628038305
H        4.7978382042    1.2491461864    2.3269848362
H        3.4226547942    1.4800278354    3.4089967141
H        3.8698775488    2.7687625073    2.2607888356
H        4.3534415246    1.2837309896   -0.1314267180
H        2.7957065282    0.6946543538   -0.6876738822
H        3.8601626040   -0.3862664676    0.2445108722
H        1.4978296690   -1.3701269447    0.8826819008
H       -1.2439104492   -1.2954072955   -2.1358893717
24   

C       -0.3553698297    1.1919293481   -0.1636078615
C        0.5423535814    0.4744974475    0.5876943028
C        1.4425935155    1.0764774920    1.6407896329
C       -1.2041893232    0.5293825995   -1.2065836610
C       -0.2998249531   -1.6388672928   -0.4103736076
C        3.7003512509    1.7218021453    2.4499270225
C        3.4029127412    0.8386529201    0.1245261783
N        0.6595581958   -0.9197631946    0.4234904522
N       -0.6101529564   -0.7733452017   -1.5476359345
N        2.8205985126    1.1811065724    1.4192587045
O        0.9821644344    1.4307930642    2.7300846279
H       -0.4168973010    2.2648032258   -0.0309072099
H       -2.2173443588    0.3899011041   -0.8153374005
H       -1.2600797010    1.1633430274   -2.0974909420
H        0.1401749880   -2.5759626012   -0.7655147750
H       -1.2077997194   -1.8613205994    0.1606524780
H        4.6859671080    1.2496887621    2.3905666610
H        3.3069096503    1.5252796372    3.4524279189
H        3.8135968999    2.8024307436    2.3194751852
H        4.2159593332    1.5302346634   -0.1175231598
H        2.6701650401    0.9171826539   -0.6848268339
H        3.7980822472   -0.1814917507    0.1441674219
H        1.2924747174   -1.4475233009    1.0160963657
H       -1.1544010854   -1.2641339371   -2.2490893425
24   

C       -0.2029598289    1.2081776930   -0.2410710964
C        0.5522816298    0.4229041400    0.5941232054
C        1.4628698054    0.9444369718    1.6808367798
C       -1.0513236944    0.6020585415   -1.3181596776
C       -0.4129675847   -1.6233109350   -0.4210802205
C        3.6835295758    1.7567043927    2.4459968466
C        3.3398865324    1.0802104484    0.0567621777
N        0.5570680834   -0.9771255633    0.4585257479
N       -0.5701002074   -0.7615076549   -1.5930266377
N        2.7980423471    1.2531816680    1.4012991611
O        1.0346027847    1.0868141815    2.8307007552
H       -0.1535204835    2.2854287508   -0.1455156960
H       -2.0938994862    0.5719288742   -0.9843800630
H       -0.9945783727    1.2131015447   -2.2247976970
H       -0.0430582513   -2.6061491664   -0.7294457281
H       -1.3711373882   -1.7455596455    0.0956368081
H        4.2644082631    0.9349789326    2.8757777957
H        3.1205648626    2.2473022880    3.2464568637
H        4.3700025160    2.5014555642    2.0312325836
H        3.2136134008    1.9991302883   -0.5239202439
H        2.8529757475    0.2558451686   -0.4735529745
H        4.4059042406    0.8375769821    0.1078857492
H        1.0672572714   -1.5434237204    1.1296006265
H       -1.1181806379   -1.2168670198   -2.3150915421
24   

C       -0.0215477578    1.1969422900   -0.2853170156
C        0.6058837515    0.3650198598    0.6095581290
C        1.5434420256    0.8131615410    1.7034987796
C       -0.9070885313    0.6483466548   -1.3633165728
C       -0.5454304389   -1.5986701571   -0.3675903211
C        3.6889268614    1.7949087955    2.4643998600
C        3.3221294209    1.2855580149    0.0351305251
N        0.4682066654   -1.0294209141    0.5154659498
N       -0.5789681916   -0.7706248918   -1.5738574249
N        2.8119438025    1.3163794360    1.4020426235
O        1.1720612201    0.7613147259    2.8814887559
H        0.1504323635    2.2643184329   -0.2307834329
H       -1.9538922585    0.7492945104   -1.0575277471
H       -0.7603644481    1.2127113166   -2.2898173992
H       -0.2788736171   -2.6271963299   -0.6302159046
H       -1.5231872292   -1.5955979414    0.1264330452
H        4.2849635679    0.9681939294    2.8629876662
H        3.1105520057    2.2420730328    3.2794658267
H        4.3618816808    2.5681678950    2.0808145745
H        3.1027937787    2.2286708184   -0.4744987934
H        2.8850951215    0.4606892987   -0.5372210982
H        4.4053082058    1.1281172156    0.0400981962
H        0.8636745269   -1.6112257950    1.2487780960
H       -1.1589617849   -1.1904026540   -2.2925130493
24   

C        0.1885104326    1.0818488105   -0.3265704525
C        0.7567213743    0.2566022718    0.6147046717
C        1.7321722618    0.6823427529    1.6804015370
C       -0.7654581232    0.5471993909   -1.3522458091
C       -0.5920937411   -1.6506388694   -0.2051462999
C        3.7858473406    1.8418727141    2.4317769450
C        3.3803870483    1.4565224359   -0.0123081451
N        0.4925131938   -1.1199295279    0.6146648935
N       -0.5806041324   -0.9078571021   -1.4661615159
N        2.9142346609    1.3596758220    1.3668222944
O        1.4479138240    0.4733786721    2.8664909325
H        0.4453251221    2.1332043182   -0.3411340819
H       -1.7916178493    0.7703171062   -1.0411172948
H       -0.5838079199    1.0290126334   -2.3182717054
H       -0.4286918765   -2.7152801739   -0.3993514430
H       -1.5518743805   -1.5215620984    0.3069626202
H        4.4432373136    1.0373463739    2.7757168357
H        3.1977829395    2.2090613244    3.2793373084
H        4.3984372354    2.6752529460    2.0737765252
H        3.0699081124    2.4079832865   -0.4544519544
H        2.9930141080    0.6340184048   -0.6226638576
H        4.4724037505    1.3886748452   -0.0467974267
H        0.8260286043   -1.6681395967    1.4037685834
H       -1.2156443796   -1.3194229765   -2.1416673488
24   

C        0.2863423734    0.9963817585   -0.4279439261
C        0.7942941743    0.1715959400    0.5497278587
C        1.7845463329    0.5591953379    1.6139188715
C       -0.7199500079    0.4969629748   -1.4215945998
C       -0.7485916641   -1.6360703327   -0.1459135059
C        3.7499404314    1.8080391051    2.4447283065
C        3.3606297904    1.5852448525   -0.0186072467
N        0.3964612129   -1.1677687956    0.6274483651
N       -0.6836398388   -0.9731130119   -1.4487900412
N        2.9005399529    1.3598283922    1.3471980183
O        1.5726753823    0.1933326314    2.7781529287
H        0.6134289451    2.0257658280   -0.4900952839
H       -1.7174038437    0.8401921333   -1.1269170436
H       -0.4951977444    0.8990766106   -2.4146317005
H       -0.6938204456   -2.7212359482   -0.2773345501
H       -1.6822402656   -1.3820823855    0.3677680865
H        4.4434828489    1.0130098991    2.7358168396
H        3.1439013948    2.0887566507    3.3125189853
H        4.3237058936    2.6911999547    2.1467171335
H        2.9865715954    2.5417652824   -0.3958698957
H        3.0332690682    0.7805075236   -0.6851446603
H        4.4548386886    1.5967149996   -0.0508321808
H        0.6814194978   -1.6872983625    1.4554129506
H       -1.3646728870   -1.3593550248   -2.0936661535
24   

C        0.3912543474    0.8956265099   -0.4831856941
C        0.8691989193    0.0916738350    0.5288933241
C        1.8772197939    0.4674955574    1.5808858598
C       -0.6666671732    0.4124617838   -1.4311431443
C       -0.8373791373   -1.6216584012   -0.0148310349
C        3.7661833686    1.7851650370    2.4719339814
C        3.3715810798    1.6979910567    0.0058605689
N        0.3620997606   -1.1978726697    0.6982819981
N       -0.7518751011   -1.0536014723   -1.3599808609
N        2.9259054861    1.3679545904    1.3547873216
O        1.7663912967   -0.0343766185    2.7085851454
H        0.7627055828    1.9034855284   -0.6046941340
H       -1.6285004357    0.8556876544   -1.1519832534
H       -0.4247874745    0.7268715776   -2.4514283746
H       -0.8733600238   -2.7139896181   -0.0728935362
H       -1.7333699037   -1.2579203625    0.4998838923
H        4.4877408112    0.9996502130    2.7174674092
H        3.1538558026    1.9964649191    3.3549105189
H        4.3083618498    2.7023738607    2.2213516847
H        2.9449796595    2.6525252591   -0.3167523133
H        3.0928932270    0.9139134611   -0.7057338142
H        4.4633382897    1.7746276021   -0.0221466565
H        0.6435666398   -1.6887420367    1.5459955598
H       -1.4761681065   -1.4247976030   -1.9652595051
24   

C        0.4623994694    0.8096313786   -0.5747438341
C        0.9112457098    0.0260376992    0.4688982998
C        1.9394109239    0.3808451097    1.5114207950
C       -0.6405462832    0.3498687109   -1.4834247349
C       -0.9433842284   -1.5729217116    0.0570360651
C        3.7570562443    1.7366650997    2.4847378654
C        3.3445891419    1.8222308418    0.0273568923
N        0.3015050358   -1.2019926460    0.7185738881
N       -0.8403667947   -1.0971004782   -1.3212480571
N        2.9213255531    1.3681644262    1.3464263539
O        1.9386489514   -0.2541581726    2.5762169747
H        0.8748814274    1.7906916770   -0.7557623425
H       -1.5618703967    0.8840033932   -1.2279448524
H       -0.3861318755    0.5795135351   -2.5230999676
H       -1.0661539338   -2.6604079526    0.0691613288
H       -1.7961813151   -1.1071831910    0.5628228952
H        4.5210858010    0.9721226927    2.6575070353
H        3.1477775122    1.8431289658    3.3884689060
H        4.2482026617    2.6981392685    2.3047819781
H        2.8451923821    2.7597540934   -0.2352770903
H        3.1360122441    1.0648235850   -0.7352250418
H        4.4265252262    1.9894144926    0.0148902088
H        0.5997596799   -1.6915358616    1.5622819876
H       -1.6022846854   -1.4461282486   -1.8924958196
24   

C        0.5505248037    0.7089656600   -0.6650880168
C        0.9538934336   -0.0206939428    0.4376296436
C        2.0205366897    0.3049394845    1.4564972443
C       -0.6026984799    0.2684206557   -1.5205041724
C       -1.0438597837   -1.4833207964    0.1758036318
C        3.8029897835    1.6508214479    2.5052770710
C        3.2909917750    1.9863729829    0.0933628323
N        0.2337707767   -1.1556070116    0.7952473967
N       -0.9185109886   -1.1379185019   -1.2377919245
N        2.9450405690    1.3574367275    1.3603106117
O        2.1246653086   -0.4397804835    2.4431407386
H        1.0293572090    1.6292662164   -0.9553177155
H       -1.4726635794    0.8966053714   -1.3017647586
H       -0.3479227116    0.3894543257   -2.5782902506
H       -1.2512894931   -2.5525282867    0.2836068436
H       -1.8514539872   -0.9096401019    0.6433785738
H        4.6104147123    0.9147549119    2.5723083769
H        3.2229306098    1.6297706663    3.4339341132
H        4.2383571300    2.6509453031    2.4145632176
H        2.6503554966    2.8537003502   -0.0933743628
H        3.2101514159    1.2699040990   -0.7304973935
H        4.3317609478    2.3258649157    0.1091601748
H        0.5572842617   -1.6564861631    1.6234900282
H       -1.7134614185   -1.4693361621   -1.7733692598
24   

C        0.8263748697    0.5757882059   -0.6701152917
C        0.9097584525    0.2860574384    0.6754731253
C        2.1048905462    0.4530629003    1.5801136107
C       -0.3727845858    0.1738358401   -1.4736507628
C       -1.3304459511   -0.8096703395    0.5895971380
C        4.3357972969    1.3104187417    2.1960510476
C        2.9994278057    2.5016481299    0.4577251920
N       -0.1279671115   -0.3936210564    1.3070508014
N       -0.9816285640   -0.9914281331   -0.8191420127
N        3.1524760771    1.3539600930    1.3430976418
O        2.1582302384   -0.2372509251    2.6070543357
H        1.6746573265    0.9780585037   -1.2037488034
H       -1.0872599332    1.0019147419   -1.5199550138
H       -0.0655226086   -0.0848501683   -2.4923512947
H       -1.7004510158   -1.7540538076    1.0013156772
H       -2.1110639271   -0.0487932722    0.6929514795
H        5.1744153562    1.8236716844    1.7150889899
H        4.6431829615    0.2741073462    2.3720217377
H        4.1279394436    1.7892197400    3.1580893609
H        1.9481508840    2.7947335070    0.3721051071
H        3.4032369995    2.2783855051   -0.5344625876
H        3.5344618103    3.3658132508    0.8647508686
H        0.1240929531   -0.8510177832    2.1840452288
H       -1.7577810706   -1.3737739499   -1.3485815375
24   

C        0.8862389962    0.4664631400   -0.7196354612
C        0.9511232026    0.2225589343    0.6341303995
C        2.1611559364    0.3669378195    1.5172742123
C       -0.3410774880    0.1228428890   -1.5072375283
C       -1.3810025809   -0.6557378691    0.6076220099
C        4.3527344666    1.3224231052    2.1366816576
C        2.8850635780    2.5347958110    0.5151910973
N       -0.1422757083   -0.3260517206    1.3089877850
N       -1.0546604979   -0.9424378329   -0.7895616759
N        3.1390630932    1.3511442887    1.3278613111
O        2.3074322175   -0.4429251178    2.4420687848
H        1.7673096664    0.7918718058   -1.2553432274
H       -0.9790033499    1.0064039902   -1.6100107440
H       -0.0541904329   -0.2233395499   -2.5057325185
H       -1.8427063920   -1.5367197889    1.0647077513
H       -2.0824124028    0.1827364063    0.6704343152
H        5.1424478164    1.9139129149    1.6628686328
H        4.7250632116    0.2971804363    2.2345432837
H        4.1533181874    1.7264687472    3.1341028373
H        1.8129562497    2.7466697838    0.4504845419
H        3.2926876436    2.4037417333   -0.4917339354
H        3.3532075812    3.4127510812    0.9719999882
H        0.0854201320   -0.8160410175    2.1740310074
H       -1.8627095737   -1.2820523297   -1.3001255716
24   

C        0.9734461048    0.3373783924   -0.7777344533
C        1.0312674614    0.1366857259    0.5817427391
C        2.2574305897    0.2582687243    1.4441232181
C       -0.2832816738    0.0598833549   -1.5447425956
C       -1.3742292679   -0.5048486385    0.6154452699
C        4.3956400945    1.3112733595    2.1005451424
C        2.8128630877    2.5306014644    0.5900233711
N       -0.1018706154   -0.2755722777    1.2970648927
N       -1.0910247060   -0.8910763485   -0.7673948893
N        3.1600784856    1.3204111715    1.3257382196
O        2.4973590552   -0.6518936649    2.2471732873
H        1.8749559758    0.5886226730   -1.3209348259
H       -0.8378039692    0.9905389202   -1.7013146079
H       -0.0327868859   -0.3693384164   -2.5205466288
H       -1.9226433000   -1.3094012130    1.1155796968
H       -1.9831403623    0.4048654627    0.6402756411
H        5.1416759786    1.9641075569    1.6366495625
H        4.8212397197    0.3029691828    2.1378543550
H        4.2048141623    1.6558919448    3.1216264279
H        1.7278554231    2.6698349555    0.5459938865
H        3.2134207563    2.4881490561   -0.4273031179
H        3.2244472708    3.4099472528    1.0958690378
H        0.0878292064   -0.7828727663    2.1601019062
H       -1.9319291411   -1.1782235579   -1.2567156417
24   

C        1.0284953373    0.1946817218   -0.8604369252
C        1.0902957799    0.0597069192    0.5055315142
C        2.3387490393    0.1581812290    1.3406767982
C       -0.2583968998   -0.0165112268   -1.5980400199
C       -1.3654180857   -0.3312110565    0.6066428922
C        4.4048934778    1.3079995969    2.0700972033
C        2.7113036215    2.5257579944    0.6786553923
N       -0.0654517282   -0.2028933676    1.2626962066
N       -1.1454647724   -0.8287010185   -0.7519020982
N        3.1542781403    1.2933161317    1.3202162374
O        2.6758889284   -0.8240829976    2.0115199263
H        1.9406035244    0.3548110792   -1.4208649029
H       -0.7237443197    0.9495973281   -1.8177029795
H       -0.0614483529   -0.5346074236   -2.5424774539
H       -1.9906813308   -1.0396366622    1.1592363191
H       -1.8715755082    0.6394334576    0.5809345388
H        5.1000679156    2.0338953387    1.6368222846
H        4.8916281873    0.3277700154    2.0340125815
H        4.2161565743    1.5738582628    3.1148186336
H        1.6187709880    2.5855480108    0.6425270234
H        3.1080385891    2.5899253815   -0.3390322686
H        3.0571235180    3.3929708904    1.2502696564
H        0.0808788149   -0.6984221337    2.1396824747
H       -2.0181656236   -1.0605125641   -1.2142023227
24   

C        1.1120976937    0.0162237475   -0.9280218829
C        1.2061771978   -0.0042587318    0.4414424750
C        2.4897199671    0.0856591881    1.2286670509
C       -0.2092943711   -0.1562169113   -1.6127828661
C       -1.2688683452   -0.1756843897    0.6382991990
C        4.4499040168    1.3429988531    2.0742462747
C        2.6306934731    2.5344146304    0.8250314334
N        0.0569163519   -0.1177305528    1.2513642886
N       -1.1362454566   -0.8075383873   -0.6746785942
N        3.1883594231    1.2906298355    1.3443901529
O        2.9405758024   -0.9359865549    1.7568533046
H        2.0163615005    0.0658505319   -1.5211054737
H       -0.6003198134    0.8208420250   -1.9140906658
H       -0.0831977058   -0.7744837393   -2.5077527609
H       -1.9409405784   -0.7706127719    1.2648211105
H       -1.6822760756    0.8333300875    0.5379198541
H        5.0819233357    2.1461692244    1.6826304815
H        5.0068281482    0.4068825777    1.9628863671
H        4.2635045712    1.5214355003    3.1377602532
H        1.5378631694    2.4959738479    0.7765791577
H        3.0250765851    2.7397570373   -0.1747396331
H        2.8885449967    3.3670801378    1.4871328096
H        0.1814612472   -0.5618600041    2.1577166424
H       -2.0396673386   -1.0001410047   -1.0940280660
24   

C        1.1202267668   -0.2007309710   -1.0058632937
C        1.2612317145   -0.0472146695    0.3506390832
C        2.5810579282    0.0450680418    1.0808868911
C       -0.2319010378   -0.3677922419   -1.6289477979
C       -1.2123602294   -0.0402323610    0.6343697333
C        4.4312098535    1.3725354378    2.0721610742
C        2.4881098372    2.5252160562    0.9779606068
N        0.1335388426   -0.0175343011    1.2036228181
N       -1.1691944491   -0.8320766437   -0.5946432523
N        3.1499256639    1.2876338938    1.3780407868
O        3.1457933313   -0.9871518958    1.4546248944
H        2.0052707314   -0.2835275085   -1.6239221832
H       -0.5682166976    0.5891819803   -2.0409462977
H       -0.1759578481   -1.0982366504   -2.4427746342
H       -1.9072778950   -0.5010737170    1.3434492414
H       -1.5499580473    0.9798316916    0.4228335383
H        5.0157170072    2.2167723721    1.6937329072
H        5.0309003231    0.4701720868    1.9154527387
H        4.2678784342    1.5042080503    3.1461863962
H        1.9183199660    2.3960769242    0.0528513629
H        3.2259255397    3.3114344285    0.7907093797
H        1.8092174315    2.8600969819    1.7685331476
H        0.2552214978   -0.3697520756    2.1490429218
H       -2.0976050749   -1.0040570747   -0.9656298945
24   

C        1.1354214603   -0.3891126725   -1.0399208866
C        1.3283708612   -0.0800351267    0.2831999303
C        2.6825793926    0.0264942361    0.9474206146
C       -0.2403532372   -0.5695405093   -1.6042443192
C       -1.1361999095    0.0475670014    0.6317383572
C        4.4170684690    1.3608891579    2.1340872614
C        2.3842658934    2.4804965086    1.1916224749
N        0.2256671295    0.0643175537    1.1612096890
N       -1.1639253767   -0.8758878184   -0.5012435967
N        3.1426255457    1.2572482810    1.4299498751
O        3.3604047149   -0.9866916971    1.1418565748
H        1.9972075614   -0.5782501072   -1.6677205510
H       -0.5516305485    0.3491032804   -2.1122978854
H       -0.2370209060   -1.3868809406   -2.3328150619
H       -1.8308634816   -0.2974087137    1.4040474179
H       -1.4313382096    1.0538972899    0.3161911936
H        5.1923092289    1.7319313734    1.4567305378
H        4.7379617651    0.3948198741    2.5363054551
H        4.3223123702    2.0475315533    2.9810374510
H        1.8530552366    2.4388787480    0.2353973111
H        3.0575248385    3.3423172822    1.1466885945
H        1.6593948602    2.6394553104    1.9960123989
H        0.3599837674   -0.1887388185    2.1356189956
H       -2.1094571700   -1.0427954825   -0.8287810400
24   

C        1.3045069568   -0.5070107617   -1.0125827227
C        1.5110209859   -0.0723983829    0.2735759628
C        2.8831141389    0.1112131348    0.8796423121
C       -0.0714924469   -0.7747644602   -1.5397660057
C       -0.9562968415    0.0128312236    0.6422526859
C        4.5317958413    1.4243920233    2.1839167724
C        2.3960706958    2.4925182211    1.4284860699
N        0.4105884925    0.1039490798    1.1504319728
N       -0.9730301849   -1.0087331481   -0.4020324604
N        3.2358733881    1.3028916178    1.5252340986
O        3.6976910643   -0.8163375132    0.8703464555
H        2.1633576431   -0.7291688570   -1.6340587326
H       -0.4146378272    0.0870992650   -2.1215520655
H       -0.0525936223   -1.6519672379   -2.1947348743
H       -1.6352483898   -0.2762326998    1.4506270367
H       -1.2763893053    0.9804244827    0.2413208079
H        5.3024649340    1.6925883163    1.4546308585
H        4.8120968749    0.4842130726    2.6701058265
H        4.4928292760    2.1942415539    2.9609347406
H        1.7771841147    2.4727305276    0.5258199808
H        3.0190381989    3.3903186620    1.3653841616
H        1.7455464315    2.5717503926    2.3046743212
H        0.5606726776   -0.0503493649    2.1425934055
H       -1.9174469293   -1.2257369787   -0.7022641048
24   

C       -0.1381425360    0.6157641198    0.6908935282
C        1.2057588728    0.4101298231    0.4873261585
C        2.2644390786    1.1339570470    1.2817625756
C       -1.1788852480   -0.0306892386   -0.1701236130
C        0.6622497447   -1.2048453367   -1.3421202673
C        4.4868454721    1.2866475041    2.3537648879
C        3.5857920220   -0.9471128753    1.6801951587
N        1.6310827222   -0.4164764492   -0.5841634116
N       -0.5601627331   -0.4135164988   -1.4471441826
N        3.4506103568    0.5061189273    1.6864383830
O        2.1146075007    2.3249142941    1.5702844548
H       -0.4478510001    1.3216823820    1.4522462081
H       -1.5749701101   -0.9163194158    0.3376327000
H       -2.0028834459    0.6692935307   -0.3429983871
H        1.0532158566   -1.4132472291   -2.3429715594
H        0.4658540856   -2.1550387095   -0.8341428131
H        4.1938069084    1.4991114343    3.3867579381
H        4.6528550223    2.2324141591    1.8273752039
H        5.4354697315    0.7406965418    2.3587991397
H        4.0960709140   -1.2812228423    2.5890986418
H        4.1607919496   -1.2741001990    0.8089049093
H        2.6087344360   -1.4402341400    1.6709580138
H        2.5234910245   -0.2113230137   -1.0219102033
H       -1.2293057737   -0.8355767470   -2.0821666439
24   

C       -0.2041126130    0.6327652490    0.5559827534
C        1.1394761991    0.3586140981    0.4373379877
C        2.1743083608    1.0792362928    1.2626124855
C       -1.2322997532   -0.0153443025   -0.3186033103
C        0.5981233288   -1.3581369013   -1.3021706211
C        4.4277321221    1.3539181168    2.2360071572
C        3.6630605610   -0.9135493725    1.5257047726
N        1.5679688609   -0.5630823864   -0.5527018493
N       -0.5701684664   -0.5145365773   -1.5314506820
N        3.4267381923    0.5257979530    1.5710129710
O        1.9348004482    2.2105146512    1.6951487951
H       -0.5216750874    1.3919738403    1.2610364877
H       -1.7028536738   -0.8429557941    0.2223892958
H       -2.0061626446    0.7131735020   -0.5817516856
H        1.0275245845   -1.6618903989   -2.2620306274
H        0.3239398242   -2.2552936024   -0.7369781964
H        4.1601910054    1.5006123279    3.2872392379
H        4.5010546962    2.3307372999    1.7464033821
H        5.4142584427    0.8828961611    2.1823338362
H        4.2682947104   -1.2230460527    2.3836764611
H        4.1872126536   -1.1881890466    0.6056970733
H        2.7241455287   -1.4723966063    1.5902526660
H        2.4885975647   -0.4329439542   -0.9588795037
H       -1.2278674289   -0.9471909731   -2.1712899443
24   

C       -0.2073195572    0.7073880056    0.5462982958
C        1.1217869391    0.3453356131    0.5089160721
C        2.1446417033    1.0133686579    1.3920490474
C       -1.2310527784    0.1039117996   -0.3647215865
C        0.5418716855   -1.4070045903   -1.1862661749
C        4.4152893589    1.3526180849    2.2990070112
C        3.7657340805   -0.8989078263    1.4540130550
N        1.5279672549   -0.6479666741   -0.4211244648
N       -0.5428457559   -0.4903373733   -1.5181858165
N        3.4422221703    0.5160325391    1.6023908027
O        1.8489117084    2.0521185234    1.9901319308
H       -0.5159511500    1.5012065857    1.2164404975
H       -1.7933928445   -0.6642952735    0.1762619168
H       -1.9308823335    0.8771936880   -0.6980941389
H        0.9967431521   -1.7886286084   -2.1057400692
H        0.1703901334   -2.2521976819   -0.5970355429
H        4.1853033073    1.3916520675    3.3684984311
H        4.4019540129    2.3699940668    1.8938137625
H        5.4277546000    0.9585970805    2.1661797616
H        4.4606134459   -1.2113287146    2.2400360044
H        4.2280910317   -1.0888508721    0.4810409264
H        2.8729907574   -1.5219678889    1.5669446116
H        2.4704328823   -0.5937164328   -0.7917316198
H       -1.1958104954   -0.9021575450   -2.1763832306
24   

C       -0.1968928473    0.7510644024    0.4809801128
C        1.1042245176    0.2970928691    0.5409100342
C        2.1042574706    0.9249758844    1.4829106116
C       -1.2102927525    0.1809149449   -0.4628118555
C        0.4715635082   -1.5171983965   -1.0726574212
C        4.3613130663    1.3486984189    2.3880393515
C        3.8841847602   -0.8482832020    1.3227805869
N        1.4769265405   -0.7813416147   -0.3107451806
N       -0.5088970090   -0.5410673535   -1.5319841188
N        3.4398734768    0.5064848100    1.6290717464
O        1.7487609024    1.8587199194    2.2082778835
H       -0.4901819214    1.5902576810    1.1008512227
H       -1.8716898195   -0.5009358506    0.0818651011
H       -1.8166054808    0.9885166633   -0.8859344981
H        0.9389347819   -2.0051936027   -1.9336804005
H       -0.0012301222   -2.2802911209   -0.4451364262
H        4.1639010098    1.2563848502    3.4607303195
H        4.2491803264    2.3976677597    2.0936832955
H        5.3990456234    1.0625660019    2.1899859322
H        4.6871482308   -1.1459071964    2.0047032758
H        4.2591867322   -0.9096010104    0.2970363631
H        3.0751365588   -1.5698665501    1.4723116181
H        2.4314914316   -0.8105764495   -0.6494830575
H       -1.1563760975   -0.9446085287   -2.2006799518
