18   

C        4.6331489562    1.3459722426    0.7538183367
C        5.8139907422    1.1162716610    0.0578439699
C        3.5008874128    0.5758692131    0.4819786556
C        5.8525192046    0.1176163436   -0.9129831081
C        3.5148812075   -0.4449182471   -0.4880718959
C        4.7243041030   -0.6614947239   -1.1988640282
C        2.2836726517   -1.2595635898   -0.7409971179
C        0.9255132182   -0.7892423114   -0.2311502246
O        2.3102354744   -2.3131859061   -1.3628699842
O        4.8394502989   -1.6001088141   -2.1827803540
H        4.5933087783    2.1217185985    1.5103739592
H        6.6964254193    1.7112887227    0.2677203004
H        2.6063407810    0.7855760779    1.0569106594
H        6.7762154828   -0.0470309288   -1.4536461957
H        0.7670969525    0.2586429235   -0.4992963553
H        0.8758648978   -0.9036687659    0.8547638182
H        0.1296915350   -1.3874177901   -0.6844089502
H        5.7506974401   -1.6457514701   -2.5119242744
18   

C        4.6560720241    1.3455002757    0.7980864998
C        5.8087066894    1.1619621814    0.0407735539
C        3.5350944513    0.5453601376    0.5677991315
C        5.8294911775    0.1814568306   -0.9507642998
C        3.5390812337   -0.4554416673   -0.4197620245
C        4.7108292110   -0.6248425215   -1.1941938963
C        2.3294741382   -1.3189268933   -0.6179731070
C        0.9406437344   -0.7750286184   -0.3057239661
O        2.4123600260   -2.4711546229   -1.0185709282
O        4.7846255987   -1.5399450930   -2.2039743682
H        4.6309738252    2.1060786869    1.5704842930
H        6.6827895058    1.7791406404    0.2191880544
H        2.6587921081    0.7057303825    1.1858787725
H        6.7286195015    0.0543169887   -1.5406948678
H        0.8585710544    0.2596012758   -0.6492615591
H        0.7583992318   -0.8184455532    0.7710679041
H        0.1829331310   -1.3739967459   -0.8189724717
H        5.6888867283   -1.5978303221   -2.5507690810
18   

C        4.7236059080    1.2900806194    0.8579609211
C        5.8289615353    1.1403999680    0.0240819286
C        3.5968832321    0.4855203685    0.6732469358
C        5.7968165783    0.1891053468   -0.9967347310
C        3.5526894013   -0.4797736068   -0.3443829146
C        4.6707240660   -0.6193333365   -1.1921514975
C        2.3474367075   -1.3659700565   -0.4960315700
C        0.9502040458   -0.7750504105   -0.3656893548
O        2.4567350047   -2.5681761037   -0.6810882383
O        4.6741182400   -1.5111449460   -2.2252946712
H        4.7408017084    2.0260546468    1.6540197130
H        6.7074983821    1.7604684217    0.1669972512
H        2.7546132370    0.6093642607    1.3450197728
H        6.6581162421    0.0867101165   -1.6450194933
H        0.8937596962    0.1644800685   -0.9218803096
H        0.7197861845   -0.5888423070    0.6860969369
H        0.2119787167   -1.4706906558   -0.7747284157
H        5.5609875589   -1.5831983425   -2.6129036633
18   

C        4.7769616443    1.2316689744    0.9525418508
C        5.8308167036    1.1371715930    0.0451626267
C        3.6523811039    0.4162228940    0.8024124374
C        5.7505628263    0.2283877783   -1.0123178828
C        3.5638512259   -0.4991184923   -0.2538192506
C        4.6258029224   -0.5893716700   -1.1706774705
C        2.3643005783   -1.4049516050   -0.3769963154
C        0.9631906123   -0.8087623972   -0.4041807255
O        2.4840695210   -2.6188476484   -0.3551165292
O        4.5692325969   -1.4487953300   -2.2294475983
H        4.8335868826    1.9317160365    1.7785918680
H        6.7073852821    1.7655603878    0.1612314026
H        2.8511565307    0.4895706840    1.5296132096
H        6.5719455396    0.1659711904   -1.7151800505
H        0.7939800837   -0.3288140876   -1.3717156855
H        0.8460021009   -0.0657388578    0.3877126902
H        0.2178472398   -1.5966132812   -0.2633196498
H        5.4326239304   -1.5044313983   -2.6700832429
18   

C        4.8386257073    1.1837746207    1.0318077151
C        5.8391248133    1.1234479999    0.0622275850
C        3.7104653072    0.3667376636    0.9204153735
C        5.7020285751    0.2466482992   -1.0169377477
C        3.5680907327   -0.5143591444   -0.1557819405
C        4.5729332744   -0.5718902204   -1.1338143908
C        2.3581691156   -1.4159331338   -0.2556184048
C        0.9906648212   -0.8060595611   -0.5242992070
O        2.4380934431   -2.6069932263   -0.0090216900
O        4.4535331352   -1.4055748406   -2.2079335454
H        4.9388035028    1.8590087405    1.8741959174
H        6.7180228292    1.7535686976    0.1470482484
H        2.9441390835    0.4108631882    1.6870672381
H        6.4818007418    0.2098619474   -1.7673925887
H        0.9020941082   -0.5743586302   -1.5889992082
H        0.8687358155    0.1144999075    0.0517297158
H        0.2026521693   -1.5106232746   -0.2442686036
H        5.2844428406   -1.4338336566   -2.7101019384
18   

C        4.9142367508    1.1369592849    1.1193396326
C        5.8512057912    1.1056343491    0.0868139754
C        3.7790521339    0.3245279131    1.0545416343
C        5.6429454408    0.2631489720   -1.0082885003
C        3.5701342767   -0.5278990587   -0.0328433599
C        4.5065762735   -0.5506182477   -1.0771576586
C        2.3326806703   -1.3957109205   -0.1114142168
C        1.0784384985   -0.8460171823   -0.7723218060
O        2.3184521221   -2.5209620057    0.3569035494
O        4.3134659740   -1.3497972438   -2.1669313388
H        5.0674404979    1.7880053669    1.9727148286
H        6.7346539588    1.7333022047    0.1344140710
H        3.0568450006    0.3492429905    1.8638800148
H        6.3722999606    0.2506649088   -1.8085870879
H        1.2779998983   -0.6567862376   -1.8303911563
H        0.7866787993    0.0903335081   -0.2900630025
H        0.2598381106   -1.5659179671   -0.6856034616
H        5.1000017161   -1.3407320240   -2.7372606542
18   

C        4.9701236621    1.0775134707    1.1664757295
C        5.8557071884    1.0796483841    0.0891756807
C        3.8243295764    0.2788919426    1.1243309099
C        5.5867961093    0.2831554217   -1.0270885013
C        3.5543983572   -0.5279086104    0.0145702431
C        4.4399970912   -0.5176554848   -1.0743652917
C        2.2910481144   -1.3567723676   -0.0306313630
C        1.1372970235   -0.9255125413   -0.9244367087
O        2.1822206524   -2.3746476185    0.6332516641
O        4.1962937951   -1.2792286251   -2.1808201058
H        5.1704861034    1.6926067288    2.0365915488
H        6.7469361506    1.6973335066    0.1191520474
H        3.1399478060    0.2782804746    1.9664977564
H        6.2787043525    0.2955179060   -1.8599787307
H        1.4640941616   -0.9007998661   -1.9669947473
H        0.8001093410    0.0722169593   -0.6322959074
H        0.3044954134   -1.6277968546   -0.8292820803
H        4.9509530404   -1.2383923418   -2.7917703946
18   

C        5.0275438871    1.0331201738    1.1988496045
C        5.8693796883    1.0699347932    0.0873066064
C        3.8679040532    0.2546136141    1.1683375815
C        5.5444625767    0.3277479551   -1.0519108209
C        3.5428392847   -0.4978245275    0.0325380724
C        4.3838304328   -0.4537561531   -1.0906134541
C        2.2553888184   -1.2841796603    0.0325155930
C        1.1591130083   -0.9687912645   -0.9756946339
O        2.0621335897   -2.1526924064    0.8700791312
O        4.0927668722   -1.1675912798   -2.2168892498
H        5.2720953409    1.6059341993    2.0863599426
H        6.7711739265    1.6724443082    0.1090975328
H        3.2161624311    0.2267322340    2.0359150376
H        6.2053684554    0.3665631307   -1.9088114795
H        1.4157840290   -1.3922635600   -1.9496847382
H        1.0486532235    0.1141995200   -1.0734579190
H        0.2091335231   -1.3948460503   -0.6416950680
H        4.8195655184   -1.0957416808   -2.8582406299
18   

C        5.0238361374    0.8999921610    1.2659797082
C        5.8416193493    0.9702155675    0.1386765329
C        3.8345499052    0.1689903836    1.2190311664
C        5.4646538886    0.3073214961   -1.0328082265
C        3.4536816969   -0.5034781805    0.0479737210
C        4.2747115314   -0.4279477779   -1.0907944027
C        2.1348636819   -1.2265628262    0.0548249545
C        1.1353180731   -1.0626737294   -1.0823056889
O        1.8274942007   -1.9241431991    1.0129604984
O        3.9434472814   -1.0671394104   -2.2504000211
H        5.3089640949    1.4111591080    2.1786758712
H        6.7657754924    1.5371831267    0.1735389045
H        3.2018535165    0.1189401966    2.0999340773
H        6.1098012468    0.3710750842   -1.9001601904
H        1.3051685648   -1.8365745032   -1.8352861552
H        1.2542596785   -0.0793812506   -1.5448703764
H        0.1156783315   -1.1523491886   -0.6980625179
H        4.6519626479   -0.9606614196   -2.9073073716
18   

C        5.0770858998    0.8538708173    1.2798328057
C        5.8709490484    0.9418144896    0.1379458716
C        3.8596999682    0.1714424311    1.2314795050
C        5.4437161168    0.3423582432   -1.0495379997
C        3.4201689122   -0.4326382186    0.0407205300
C        4.2257619706   -0.3456370452   -1.1122392614
C        2.0824425880   -1.1168180306    0.0737127527
C        1.1450248330   -1.1282070202   -1.1274520267
O        1.6868705618   -1.6163858788    1.1214236485
O        3.8643380643   -0.9313092598   -2.2907166642
H        5.4021335414    1.3140637484    2.2062138826
H        6.8168007188    1.4716842031    0.1745174330
H        3.2517159485    0.1132797257    2.1292577824
H        6.0745881741    0.4160725616   -1.9265514217
H        1.3817880823   -1.9792816696   -1.7712182388
H        1.2539717592   -0.2015536599   -1.6969047225
H        0.1083069378   -1.2131503362   -0.7905182275
H        4.5637840218   -0.8096118320   -2.9547053327
18   

C        5.0830098205    0.7998025601    1.3193374816
C        5.8609611535    0.8893164195    0.1682669873
C        3.8307047940    0.1846207058    1.2692036549
C        5.3831669076    0.3571649900   -1.0306945185
C        3.3329246644   -0.3496816010    0.0655402595
C        4.1299666027   -0.2644105359   -1.0982630981
C        1.9669680649   -0.9783938683    0.1183463243
C        1.1066665281   -1.2078730681   -1.1190034424
O        1.4736853313   -1.2520117208    1.2086311714
O        3.7350380145   -0.7845955175   -2.2960990401
H        5.4471614709    1.2072293511    2.2558396442
H        6.8338619849    1.3675768987    0.2066520975
H        3.2452422621    0.1312730912    2.1820301299
H        6.0042437767    0.4300996905   -1.9147457346
H        1.4613436837   -2.0904137683   -1.6576421497
H        1.1513419810   -0.3346741774   -1.7748359877
H        0.0656043757   -1.3687665567   -0.8255543329
H        4.4289761780   -0.6537205644   -2.9640897182
18   

C        5.1368197875    0.7417162255    1.3248052087
C        5.9095595201    0.8403126332    0.1720257642
C        3.8570325086    0.1876727448    1.2623507863
C        5.3966425859    0.3825850412   -1.0421944654
C        3.3234184494   -0.2794076574    0.0452144916
C        4.1148238806   -0.1761446467   -1.1239601690
C        1.9337491216   -0.8573044862    0.0966843421
C        1.2005330969   -1.4089626266   -1.1209809470
O        1.3396025054   -0.8958518344    1.1707119722
O        3.6851391195   -0.6003470014   -2.3470148724
H        5.5263533682    1.0945459397    2.2731866504
H        6.9041073975    1.2707881774    0.2201116119
H        3.2829163395    0.1269121357    2.1818019682
H        6.0121751924    0.4673542784   -1.9290720974
H        1.7624869577   -2.2430102710   -1.5489829598
H        1.0763611299   -0.6226348896   -1.8699042531
H        0.2104204219   -1.7704839564   -0.8294344732
H        4.3713633669   -0.4426379709   -3.0171389949
18   

C        5.1399416921    0.6652486909    1.3459473910
C        5.9096647652    0.7742044488    0.1910281919
C        3.8354123420    0.1734434769    1.2713793555
C        5.3676157699    0.3938528853   -1.0379942287
C        3.2784060294   -0.2209447857    0.0400085805
C        4.0604105147   -0.1001400454   -1.1308297645
C        1.8700857630   -0.7495810726    0.0729884152
C        1.2736309740   -1.6023568587   -1.0409368175
O        1.1817370469   -0.5623994570    1.0720154821
O        3.5850171031   -0.4302229863   -2.3663127534
H        5.5512227642    0.9613323727    2.3044992354
H        6.9234472408    1.1558850138    0.2485400044
H        3.2594731959    0.0975902928    2.1886606229
H        5.9783432700    0.4912400880   -1.9268868844
H        2.0021428239   -2.3446656760   -1.3768484416
H        0.9848881876   -0.9648483368   -1.8805892043
H        0.3865907678   -2.1271237545   -0.6754386722
H        4.2577061361   -0.2491430082   -3.0442430434
18   

C        4.6333768131    1.9329424013    0.1016786454
C        5.7639059272    1.1271494269   -0.0185697456
C        3.3673870202    1.3994544985   -0.1487914753
C        5.6227471471   -0.2114806146   -0.3929186603
C        3.2150583195    0.0531707736   -0.5233993714
C        4.3596343192   -0.7594388652   -0.6478088117
C        1.8128965991   -0.4423375250   -0.7404684171
C        1.3901683575   -1.8645638082   -0.3936952532
O        0.9522594038    0.3377799710   -1.1334834336
O        4.2780505916   -2.0667811016   -1.0307558790
H        4.7339946892    2.9734952113    0.3893264954
H        6.7477676071    1.5406581428    0.1757534080
H        2.4961276658    2.0397654501   -0.0490806265
H        6.5116931789   -0.8227483651   -0.4862599992
H        1.9515962827   -2.2216958310    0.4735345765
H        1.5804915907   -2.5231804267   -1.2450594506
H        0.3233530419   -1.8887812562   -0.1552788980
H        5.1679977125   -2.4495711569   -1.1106415190
18   

C        4.6038665246    1.9101859797    0.1632565082
C        5.7455798909    1.1228542950    0.0179767472
C        3.3485204632    1.3794519201   -0.1423504704
C        5.6254972716   -0.1946666737   -0.4332675872
C        3.2220406354    0.0596335647   -0.6014095864
C        4.3721697868   -0.7365978378   -0.7421820989
C        1.8346911296   -0.4603524828   -0.8603795496
C        1.3845613967   -1.8153210839   -0.3307934976
O        1.0270533710    0.2333182828   -1.4650992017
O        4.2955817247   -2.0249552817   -1.1863185375
H        4.6882542229    2.9331521500    0.5125742296
H        6.7213269929    1.5335919641    0.2545024545
H        2.4634031367    1.9974366865   -0.0263277932
H        6.5209616096   -0.7939295604   -0.5410021818
H        1.9340128900   -2.0605329108    0.5818684406
H        1.5752747821   -2.5855253720   -1.0825680811
H        0.3151880926   -1.7905127791   -0.1045750971
H        5.1867920475   -2.4005923200   -1.2837859929
18   

C        4.5677681838    1.8358735483    0.2279250799
C        5.7211097626    1.0771152780    0.0291873321
C        3.3209929032    1.3122003974   -0.1228594898
C        5.6201359995   -0.2049570858   -0.5187117943
C        3.2153089642    0.0315659743   -0.6802449048
C        4.3744688166   -0.7369888247   -0.8717091837
C        1.8424448056   -0.5069535345   -0.9982155475
C        1.3227359997   -1.7549968032   -0.2980267182
O        1.1161397421    0.0785887642   -1.7873617398
O        4.3077430201   -1.9915240593   -1.4050437147
H        4.6371519372    2.8311649299    0.6523985845
H        6.6905323375    1.4820474668    0.2993331538
H        2.4257928402    1.9064027780    0.0313098760
H        6.5229384550   -0.7844249888   -0.6661798485
H        1.5658835718   -1.7084866578    0.7665506958
H        1.7834344890   -2.6454579126   -0.7323377711
H        0.2375703341   -1.8244698746   -0.4126315664
H        5.2019927409   -2.3428406470   -1.5520978136
18   

C        4.6407452270    1.8267863770    0.3526211722
C        5.8060269166    1.0973515323    0.1184316180
C        3.4030623344    1.3038490689   -0.0309010369
C        5.7247281124   -0.1547730743   -0.4966319963
C        3.3155562498    0.0559228380   -0.6556509592
C        4.4872822411   -0.6831423396   -0.8816549752
C        1.9654372511   -0.5117718287   -1.0299057302
C        1.3704530037   -1.6467049924   -0.2089598064
O        1.3447822698   -0.0803508760   -1.9876716388
O        4.4351908554   -1.9127835824   -1.4723311830
H        4.6941747624    2.7990208802    0.8295826896
H        6.7687040813    1.5009333333    0.4135542101
H        2.4994924084    1.8767642298    0.1506253976
H        6.6351819630   -0.7148092347   -0.6699234471
H        1.2538522986   -1.3262849547    0.8294241068
H        2.0321273979   -2.5158532796   -0.2421392089
H        0.3926798325   -1.9285703548   -0.6093689801
H        5.3327485083   -2.2407704816   -1.6491176839
18   

C        4.6248892532    1.7745558864    0.4295401916
C        5.8108742063    1.0983048359    0.1447064290
C        3.4005361016    1.2315423130    0.0308123680
C        5.7631400286   -0.1218561841   -0.5345104720
C        3.3466797739    0.0168816565   -0.6579505931
C        4.5387636078   -0.6692658253   -0.9339328890
C        2.0198763456   -0.5797356977   -1.0753633099
C        1.2887905054   -1.5108245867   -0.1210727662
O        1.5206570610   -0.3175839679   -2.1559872953
O        4.5151575557   -1.8730339999   -1.5773386904
H        4.6524068993    2.7216788786    0.9565907637
H        6.7633749187    1.5175501625    0.4507927342
H        2.4818685259    1.7654946993    0.2502824070
H        6.6885635973   -0.6432196452   -0.7451353345
H        1.1277893991   -1.0074185106    0.8355406198
H        1.8905383116   -2.4085650028    0.0435630051
H        0.3221835326   -1.8001812172   -0.5427707722
H        5.4178808482   -2.1576899861   -1.7965588125
18   

C        4.6013856043    1.6757170498    0.5019553004
C        5.8138783973    1.0740238309    0.1664641773
C        3.3982152900    1.0905254321    0.0986739630
C        5.8143188597   -0.1140581255   -0.5688153779
C        3.3916856427   -0.0971020480   -0.6391016682
C        4.6117914219   -0.7049138346   -0.9729665514
C        2.0871838922   -0.7101778706   -1.0964170613
C        1.1356209776   -1.2997712542   -0.0663161142
O        1.7301550443   -0.6361832941   -2.2595425139
O        4.6386701989   -1.8760919955   -1.6734221030
H        4.5922986040    2.5995605642    1.0694278268
H        6.7500530310    1.5271055206    0.4746886480
H        2.4605692400    1.5735497081    0.3525744478
H        6.7604453676   -0.5765524116   -0.8208545865
H        1.0916671697   -0.6580176432    0.8170441929
H        1.4931199069   -2.2895004006    0.2299048238
H        0.1322829100   -1.3936058786   -0.4909324506
H        5.5465804278   -2.0886072681   -1.9453019611
18   

C        4.5873769349    1.5891786769    0.5710030609
C        5.8160857244    1.0573664308    0.1832784130
C        3.4013773660    0.9691332496    0.1695989583
C        5.8506140515   -0.0972989015   -0.6016724212
C        3.4262035409   -0.1879580558   -0.6189376908
C        4.6666469847   -0.7254585098   -1.0048189497
C        2.1378869441   -0.8202344679   -1.0829247623
C        1.0683738841   -1.1964377316   -0.0661122666
O        1.8879807669   -0.9476320896   -2.2702253857
O        4.7369425797   -1.8663151852   -1.7506790512
H        4.5521594602    2.4877255559    1.1768117154
H        6.7387814552    1.5386785147    0.4893629115
H        2.4546726615    1.4086710069    0.4640783503
H        6.8099936915   -0.5059995762   -0.8934521683
H        0.9027596864   -0.3783768074    0.6383451332
H        1.3913750112   -2.0829372778    0.4860611991
H        0.1274386093   -1.4194570072   -0.5769826784
H        5.6446561670   -2.0152495284   -2.0614425492
18   

C        4.5896341692    1.4929910852    0.6481590230
C        5.8229804500    1.0375992480    0.1887725253
C        3.4169433033    0.8414435645    0.2592721180
C        5.8756164119   -0.0743787433   -0.6531176530
C        3.4536729761   -0.2734179294   -0.5920953886
C        4.7060734497   -0.7363167184   -1.0453527867
C        2.1758319672   -0.9312762710   -1.0345160578
C        1.0531048373   -1.1592906195   -0.0315613058
O        1.9925979962   -1.2542376615   -2.1979606306
O        4.8118149122   -1.8395186442   -1.8419023804
H        4.5398555170    2.3567567583    1.3016829927
H        6.7356600547    1.5434719091    0.4851595980
H        2.4673310175    1.2240328112    0.6168936824
H        6.8402144985   -0.4256923235   -0.9976820132
H        0.5363878973   -0.2181177809    0.1714440765
H        1.4657300747   -1.5555582987    0.9000845628
H        0.3356773477   -1.8805298202   -0.4332038435
H        5.7172440456   -1.9336579189   -2.1785108490
18   

C        4.5826632024    1.4237069243    0.7108281165
C        5.8176382258    1.0461819300    0.1930186422
C        3.4274337081    0.7374722381    0.3308361422
C        5.8899833675   -0.0242297441   -0.6980376090
C        3.4775569990   -0.3374059328   -0.5740333023
C        4.7395327173   -0.7229812572   -1.0840154948
C        2.2133872515   -1.0303569648   -0.9864765866
C        1.0264260321   -1.0897585887   -0.0326455260
O        2.0871653499   -1.5527736810   -2.0846796626
O        4.8844434562   -1.7840943489   -1.9299149760
H        4.5174260234    2.2542805086    1.4048018190
H        6.7168346121    1.5792300425    0.4829620190
H        2.4800889501    1.0673826060    0.7423462317
H        6.8577378374   -0.3155374560   -1.0868882044
H        0.4810625959   -0.1429472780   -0.0592291837
H        1.3745461961   -1.2829992176    0.9855318653
H        0.3512047944   -1.8974028062   -0.3294582647
H        5.7934630838   -1.8355860843   -2.2650855260
18   

C        4.6207900346    1.3814590944    0.7150208142
C        5.8377373828    1.0479810987    0.1324739962
C        3.4647988220    0.6795402156    0.3686603171
C        5.8910278858    0.0068743257   -0.7919492446
C        3.4892121383   -0.3712249734   -0.5686232400
C        4.7405654433   -0.7083132613   -1.1476940327
C        2.2250232610   -1.0910941863   -0.9251415909
C        0.9827394873   -0.9537661170   -0.0512912152
O        2.1364666913   -1.8138890230   -1.9086446949
O        4.8848073078   -1.7305615748   -2.0401901013
H        4.5697222873    2.1894924366    1.4362837774
H        6.7377644535    1.5924497009    0.3975957537
H        2.5379598006    0.9820618788    0.8421448059
H        6.8462522144   -0.2483904775   -1.2335672678
H        0.5472086679    0.0407831817   -0.1775934398
H        1.2438553160   -1.1115396536    0.9984647417
H        0.2392606129   -1.7023743942   -0.3401065558
H        5.7951709207   -1.7736717352   -2.3721085552
18   

C        4.6296201182    1.3631536753    0.7326776742
C        5.8322206738    1.0850063496    0.0954469142
C        3.4864214599    0.6250096212    0.4213919426
C        5.8829987910    0.0661348220   -0.8527034709
C        3.5073892624   -0.4113221858   -0.5332159435
C        4.7452473999   -0.6839004990   -1.1766033278
C        2.2589105601   -1.1798849009   -0.8387197265
C        0.9501179790   -0.8554548891   -0.1252594769
O        2.2285397163   -2.0876898648   -1.6594186106
O        4.8890443106   -1.6621162657   -2.1171690514
H        4.5801025666    2.1545147949    1.4723126539
H        6.7226535257    1.6565268587    0.3347956214
H        2.5753353112    0.8835827918    0.9479434302
H        6.8262915168   -0.1410744910   -1.3425142182
H        0.6576814303    0.1772124251   -0.3326086860
H        1.0667094190   -0.9982211264    0.9522097602
H        0.1566413688   -1.5196081677   -0.4802675540
H        5.8023436508   -1.6989123889   -2.4413938095
