33

C     -7.74838   -1.70377    2.10922
C     -6.85220   -2.68040    2.55520
C     -7.39939   -0.90898    1.00865
C     -5.62084   -2.84811    1.91190
C     -6.17188   -1.07990    0.36625
C     -5.25695   -2.04989    0.81640
C     -4.24660   -2.91807   -1.36909
C     -3.11186   -1.05521   -0.06632
C      0.61105    0.04599   -2.77196
C      0.13974   -1.39574   -2.86828
C     -0.75920   -0.35103   -2.25420
C     -1.99126    0.08477   -3.02877
C     -0.90892   -0.38307   -0.74700
C     -3.95290   -2.28462    0.11099
O     -4.44106   -2.06440   -2.26794
O     -4.25748   -4.16417   -1.38248
O     -3.46569    0.11063   -0.02183
O     -1.81556   -1.42137   -0.33128
H     -8.70749   -1.56793    2.60575
H     -7.11135   -3.31410    3.40173
H     -8.09486   -0.15460    0.64452
H     -4.93193   -3.61682    2.25590
H     -5.90916   -0.47980   -0.49713
H      1.39564    0.28015   -2.05496
H      0.65107    0.63593   -3.68445
H     -0.13905   -1.78276   -3.84422
H      0.59457   -2.13049   -2.20931
H     -2.30507    1.08879   -2.71908
H     -2.82815   -0.60175   -2.86163
H     -1.77531    0.10943   -4.10395
H     -1.26478    0.57961   -0.37054
H      0.04752   -0.62620   -0.27224
H     -3.36328   -3.03658    0.63666
