54

C      6.60585   -0.88336   -0.32877
C      5.34376   -0.51334   -0.78024
C      7.37499    0.00473    0.43346
C      5.60988    1.70523    0.23741
C      4.86617    0.76760   -0.50284
C      6.86919    1.28891    0.71103
C     10.99553   -0.63743    0.03375
C      9.57586   -2.76453    0.33252
C      8.68652   -0.48874    0.97492
C     11.93030   -1.05664    1.15599
C     10.76572   -3.31120    1.09410
C     11.44642   -2.25953    1.97986
C      2.26770    5.92669    4.00720
C      3.01733    6.38441    2.74806
C      1.68827    4.51646    3.82541
C      4.10308    5.37429    2.34364
C      2.77387    3.51075    3.41607
C      9.59199   -1.26021   -0.01178
C      3.50775    3.97395    2.16122
C      3.59180    2.11752   -2.65062
C      5.08108    3.08162    0.58826
O     11.32687    0.15377   -0.83020
O      8.64523   -3.46041   -0.03409
O      9.03047   -0.30416    2.12821
O      2.66435   -0.15355   -1.66308
O      2.43945    1.95790   -0.25268
O      4.51499    2.98801    1.88489
S      3.21045    1.12533   -1.18571
Cl     7.84357    2.41974    1.62380
H      6.98607   -1.87937   -0.53794
H      4.72484   -1.20777   -1.33767
H     12.89697   -1.25879    0.68117
H     12.07833   -0.17893    1.79422
H     10.43154   -4.18542    1.65845
H     11.47058   -3.67746    0.33223
H     10.74697   -1.92310    2.74738
H     12.29733   -2.71503    2.49464
H      1.46912    6.63735    4.25083
H      2.96118    5.92605    4.85940
H      2.30081    6.49664    1.92249
H      3.46678    7.37146    2.90688
H      1.20170    4.18199    4.74870
H      0.90745    4.54251    3.05314
H      4.59577    5.70410    1.42086
H      4.87691    5.32134    3.12032
H      3.50676    3.39906    4.22551
H      2.34354    2.52228    3.22762
H      9.20959   -1.13986   -1.02543
H      2.79851    3.98325    1.32043
H      2.63051    2.34330   -3.11722
H      4.09703    3.03676   -2.35268
H      4.21397    1.52220   -3.31996
H      5.90004    3.80932    0.56112
H      4.32287    3.40382   -0.12962
