59

C      1.58270    1.35981    0.27459
C     -2.30012   -1.13267   -3.30334
C     -0.73308   -2.87142   -2.70396
C      1.92276    2.01135    1.45308
C     -2.71141   -1.87329   -4.41024
C     -1.13781   -3.62799   -3.80328
C      0.63438    0.38142    2.69590
C     -1.30005   -1.61181   -2.43570
C      0.75377    0.22193    0.26526
C      0.28679   -0.27121    1.50408
C      1.44614    1.52197    2.67880
C     -2.13053   -3.12259   -4.64461
C     -0.88470   -0.81972   -1.25036
C      0.40204   -0.46038   -1.01018
C     -0.57030   -1.51639    1.55309
C     -1.98252   -0.42700   -0.27481
C     -1.99263   -1.30308    0.99410
C      1.36813    1.76045    5.05914
C     -4.05143   -5.06094   -5.36793
C      1.54083   -0.71232   -1.97487
C      2.57634   -1.71915   -1.44385
C      3.76297   -1.90061   -2.39475
C      4.77866   -2.93295   -1.89465
C      5.97429   -3.11910   -2.83019
O     -3.23619   -3.18699   -7.05655
O     -1.60417   -5.05186   -6.38782
O      5.60637   -3.56269   -4.14159
O      1.83024    2.21882    3.79271
S     -2.67551   -4.10088   -6.04809
H      1.95504    1.75888   -0.66455
H     -2.73733   -0.15392   -3.12511
H      0.02997   -3.26042   -2.03728
H      2.55127    2.89700    1.44987
H     -3.45297   -1.48404   -5.10165
H     -0.68469   -4.59093   -4.01992
H      0.26708   -0.02316    3.63316
H     -0.08160   -2.29645    0.95898
H     -0.63061   -1.89155    2.57963
H     -1.83541    0.61509    0.02740
H     -2.96199   -0.48676   -0.75819
H     -2.43854   -2.28221    0.78172
H     -2.62689   -0.81747    1.74561
H      1.77954    2.45222    5.79542
H      1.72772    0.74634    5.27356
H      0.27263    1.77884    5.11604
H     -4.42483   -5.68033   -6.18634
H     -3.67947   -5.68353   -4.55312
H     -4.82497   -4.37403   -5.02201
H      2.05821    0.23549   -2.17056
H      1.15920   -1.05077   -2.94100
H      2.93376   -1.38776   -0.46140
H      2.08646   -2.68809   -1.27872
H      3.40455   -2.19652   -3.38742
H      4.26937   -0.93479   -2.52865
H      5.15937   -2.63424   -0.90811
H      4.28086   -3.90322   -1.74703
H      6.70106   -3.81146   -2.37969
H      6.48347   -2.16302   -2.98624
H      5.17993   -4.42969   -4.05471
