24   

C       -0.6241841584    1.2047558312   -0.0621061809
C        0.5635715259    0.6605188954    0.3739303750
C        1.5239331323    1.4391078584    1.2314323659
C       -1.5685511511    0.4592236409   -0.9555162892
C       -0.1017683927   -1.5095745207   -0.6682719107
C        3.6743362040    1.7725920918    2.3961378227
C        3.6125981577    0.4003047866    0.3208298644
N        0.8921958352   -0.6570094359   -0.0218197457
N       -0.8506326744   -0.6577247906   -1.5858516693
N        2.8803107751    1.0981807854    1.3730989557
O        1.1567470494    2.4617990752    1.8123676603
H       -0.8598499819    2.2282722192    0.2049843982
H       -2.4068702760    0.0807644042   -0.3614969503
H       -1.9635162238    1.1339808706   -1.7220243253
H        0.3948504854   -2.3104797475   -1.2248112632
H       -0.7703204134   -1.9505859916    0.0790846676
H        4.6149670716    1.2395017287    2.5666205175
H        3.1305126055    1.7947699189    3.3464685073
H        3.8965408965    2.7993968759    2.0885721003
H        4.6037858447    0.8469880749    0.1924146533
H        3.1049587074    0.4949699448   -0.6446574172
H        3.7346844684   -0.6574349494    0.5716105562
H        1.7498900469   -1.0800296387    0.3133205521
H       -1.4550737662   -1.2003129059   -2.1934240459
24   

C       -0.5791636277    1.1899265115   -0.1031509430
C        0.5506660577    0.6066449144    0.4227074343
C        1.4836639374    1.3522963927    1.3368038258
C       -1.4941328399    0.4578635717   -1.0375802356
C       -0.1427203182   -1.5650800306   -0.5888563411
C        3.6826621734    1.7531630199    2.3883265728
C        3.5584592256    0.4817258005    0.2448758744
N        0.8437611481   -0.7366878973    0.0991048189
N       -0.7877549761   -0.7113529522   -1.5817186330
N        2.8648041040    1.1023933164    1.3696795167
O        1.0593535571    2.2477287168    2.0704236607
H       -0.7866313636    2.2279804154    0.1283657445
H       -2.3880242813    0.1375260664   -0.4923658577
H       -1.8035275596    1.1232501878   -1.8501849487
H        0.3525760290   -2.4053692498   -1.0852552648
H       -0.8800837629   -1.9509242953    0.1234901217
H        4.6646929823    1.2746224588    2.4564143067
H        3.2058136738    1.6698708569    3.3706555680
H        3.8182671716    2.8119456306    2.1459494183
H        4.5045340094    0.9986794531    0.0551308781
H        2.9724916719    0.5592646458   -0.6767562562
H        3.7680257829   -0.5710732796    0.4553794527
H        1.6617705918   -1.1819487144    0.5001625932
H       -1.3752881888   -1.2474926129   -2.2112612332
24   

C       -0.5259462024    1.1835166610   -0.1386904455
C        0.5351287807    0.5561018168    0.4694374941
C        1.4516438287    1.2601362917    1.4344762790
C       -1.4162034801    0.4704725590   -1.1110974806
C       -0.2004825211   -1.6058087779   -0.5258425958
C        3.6857071104    1.7296538018    2.3848731085
C        3.4964016704    0.5653013185    0.1795823107
N        0.7783466581   -0.8100112868    0.2099143187
N       -0.7357476764   -0.7468811418   -1.5790188683
N        2.8440285142    1.1102741033    1.3669077201
O        0.9954407656    2.0015302817    2.3081198512
H       -0.6938582358    2.2354686002    0.0584344501
H       -2.3573546805    0.2089830793   -0.6162973480
H       -1.6404248907    1.1265625949   -1.9584668785
H        0.2840343437   -2.4812063638   -0.9694094193
H       -1.0017675982   -1.9379095651    0.1432368949
H        4.6886822707    1.2916074214    2.3715722085
H        3.2662998666    1.5628387434    3.3826022356
H        3.7651871138    2.8065283208    2.2060247902
H        4.3919719096    1.1482323371   -0.0576842198
H        2.8453358833    0.6219794757   -0.6987715878
H        3.7853546819   -0.4767012988    0.3452287374
H        1.5491149281   -1.2815188564    0.6711032291
H       -1.3080178504   -1.2707570508   -2.2325441967
24   

C       -0.3905515854    1.1820924021   -0.1062464507
C        0.5973904712    0.5102105026    0.5713560688
C        1.5252271129    1.1715821667    1.5594084122
C       -1.2755446142    0.4873946727   -1.0967483104
C       -0.2090601417   -1.6360965505   -0.3930296427
C        3.7979905337    1.7281663947    2.3722714107
C        3.5006413026    0.6726704180    0.1205497135
N        0.7736027556   -0.8744890383    0.3732151711
N       -0.6430652666   -0.7800616768   -1.4953176067
N        2.9129351496    1.1398205909    1.3732471648
O        1.0793556222    1.7413016975    2.5588715580
H       -0.5009398792    2.2484688404    0.0475535531
H       -2.2508324716    0.2933727964   -0.6382967654
H       -1.4248824720    1.1264607830   -1.9731277270
H        0.2482154288   -2.5485835641   -0.7881487530
H       -1.0603340167   -1.9057038587    0.2415133358
H        4.8000777002    1.2945441279    2.2961465713
H        3.4303423985    1.5267662153    3.3838352686
H        3.8660346336    2.8105909099    2.2258556900
H        4.3410606126    1.3143910046   -0.1621288247
H        2.7825407877    0.7140728335   -0.7046759123
H        3.8586993310   -0.3555815592    0.2273429752
H        1.4918091676   -1.3727249768    0.8886192590
H       -1.2118625496   -1.2918283514   -2.1613973293
24   

C       -0.3384756706    1.1954165082   -0.1800886173
C        0.5423535814    0.4744974475    0.5876943028
C        1.4425935155    1.0764774920    1.6407896329
C       -1.1811437624    0.5335864551   -1.2284293277
C       -0.2952111584   -1.6368748477   -0.4172232557
C        3.6966692473    1.7539906404    2.4351414939
C        3.3968347861    0.8612071358    0.1135069491
N        0.6595581958   -0.9197631946    0.4234904522
N       -0.5905359008   -0.7731677617   -1.5598767184
N        2.8166404757    1.2060474925    1.4084884307
O        0.9821644344    1.4307930642    2.7300846279
H       -0.3921576139    2.2695888460   -0.0547128363
H       -2.1982829775    0.4001159650   -0.8453873691
H       -1.2265676361    1.1649323960   -2.1217566513
H        0.1436553052   -2.5771240012   -0.7653616359
H       -1.2095314576   -1.8533933615    0.1459296358
H        4.6836493373    1.2847065114    2.3756337405
H        3.3064807854    1.5602211869    3.4394595194
H        3.8059967161    2.8344228171    2.3002249402
H        4.2077717640    1.5538868182   -0.1323696594
H        2.6619095723    0.9355705826   -0.6942405417
H        3.7945967513   -0.1579244382    0.1353826937
H        1.2868407390   -1.4489643475    1.0207818624
H       -1.1312369216   -1.2634309763   -2.2644423252
24   

C       -0.2045541036    1.2080864268   -0.2397080545
C        0.5522816298    0.4229041400    0.5941232054
C        1.4628698054    0.9444369718    1.6808367798
C       -1.0534802860    0.6019707198   -1.3163599389
C       -0.4134261458   -1.6234056871   -0.4205189296
C        3.6836426704    1.7563413103    2.4460621666
C        3.3399082809    1.0800349207    0.0567855881
N        0.5570680834   -0.9771255633    0.4585257479
N       -0.5718758634   -0.7612950357   -1.5920620154
N        2.7981162410    1.2529039678    1.4013552093
O        1.0346027847    1.0868141815    2.8307007552
H       -0.1558465121    2.2853169777   -0.1435450316
H       -2.0957977101    0.5712996027   -0.9818359935
H       -0.9976342357    1.2133369810   -2.2228383806
H       -0.0433664513   -2.6059898965   -0.7295131213
H       -1.3711311106   -1.7462099643    0.0969253640
H        4.2644754098    0.9345693204    2.8758148049
H        3.1207176452    2.2469522271    3.2465423065
H        4.3701558696    2.5010653268    2.0313149318
H        3.2136371894    1.9990088320   -0.5238127990
H        2.8529586883    0.2557271915   -0.4735819086
H        4.4059229406    0.8373757720    0.1078517007
H        1.0677428895   -1.5433903218    1.1292574734
H       -1.1202812652   -1.2166583869   -2.3138770936
24   

C       -0.0397237265    1.1987697230   -0.2703798890
C        0.6058837515    0.3650198598    0.6095581290
C        1.5434420256    0.8131615410    1.7034987796
C       -0.9316160399    0.6510894503   -1.3436650943
C       -0.5506619307   -1.5988367277   -0.3615884257
C        3.7036286882    1.7628031455    2.4649495378
C        3.3279938521    1.2615232193    0.0350217011
N        0.4682066654   -1.0294209141    0.5154659498
N       -0.5986111344   -0.7653639000   -1.5636683164
N        2.8219171686    1.2910822214    1.4034029288
O        1.1720612201    0.7613147259    2.8814887559
H        0.1241131422    2.2670692763   -0.2093018111
H       -1.9763876845    0.7459189043   -1.0292393669
H       -0.7945956286    1.2202934463   -2.2687192700
H       -0.2818691389   -2.6248909040   -0.6315045883
H       -1.5241046894   -1.6024144293    0.1408535960
H        4.2968254063    0.9324761876    2.8601105017
H        3.1296057868    2.2108277561    3.2826413872
H        4.3789419525    2.5341787862    2.0816666319
H        3.1107016482    2.2067145483   -0.4717046756
H        2.8860378454    0.4396090924   -0.5377683186
H        4.4106173340    1.1003196304    0.0364750417
H        0.8694391174   -1.6115684916    1.2453506839
H       -1.1822319329   -1.1846385481   -2.2796724819
24   

C        0.1664534080    1.0878239806   -0.3071833219
C        0.7567213743    0.2566022718    0.6147046717
C        1.7321722618    0.6823427529    1.6804015370
C       -0.7953955555    0.5558621624   -1.3269460928
C       -0.5982855667   -1.6495475747   -0.1978377307
C        3.8128657996    1.7988992124    2.4244313638
C        3.3873875188    1.4258807625   -0.0190801825
N        0.4925131938   -1.1199295279    0.6146648935
N       -0.6042716689   -0.8974316785   -1.4534478646
N        2.9317493009    1.3258433969    1.3631771071
O        1.4479138240    0.4733786721    2.8664909325
H        0.4145866186    2.1413634870   -0.3131737381
H       -1.8194849419    0.7716857236   -1.0042497695
H       -0.6254275168    1.0453155685   -2.2912919482
H       -0.4318186408   -2.7118654131   -0.4019136928
H       -1.5531939828   -1.5290191364    0.3253135990
H        4.4676464083    0.9894500883    2.7614921767
H        3.2327062292    2.1668718652    3.2771346803
H        4.4276357968    2.6303323297    2.0655857308
H        3.0786654868    2.3810194446   -0.4545866128
H        2.9903051998    0.6081465832   -0.6295706032
H        4.4787109280    1.3524362329   -0.0624307817
H        0.8320481297   -1.6692449060    1.4004076393
H       -1.2436621484   -1.3076025672   -2.1256892447
24   

C        0.2657855529    1.0053911083   -0.4088175059
C        0.7942941743    0.1715959400    0.5497278587
C        1.7845463329    0.5591953379    1.6139188715
C       -0.7480282861    0.5101949638   -1.3969503091
C       -0.7542538324   -1.6339294333   -0.1390573714
C        3.7816416304    1.7678616497    2.4301375317
C        3.3650719995    1.5581925664   -0.0312501281
N        0.3964612129   -1.1677687956    0.6274483651
N       -0.7055013387   -0.9595139600   -1.4368784731
N        2.9200865036    1.3282772946    1.3386244801
O        1.5726753823    0.1933326314    2.7781529287
H        0.5862739984    2.0374373601   -0.4620145397
H       -1.7440934632    0.8467604210   -1.0903222928
H       -0.5339528001    0.9212586580   -2.3887157270
H       -0.6962341686   -2.7176494119   -0.2806225890
H       -1.6838747943   -1.3884425540    0.3859090599
H        4.4730692130    0.9680639941    2.7127804290
H        3.1851479268    2.0496485510    3.3042346189
H        4.3573635754    2.6490497192    2.1300211464
H        2.9901637007    2.5178853991   -0.3996092420
H        3.0265833747    0.7577805132   -0.6974078660
H        4.4588624566    1.5659539820   -0.0759321611
H        0.6860816995   -1.6886119616    1.4529556736
H       -1.3905677148   -1.3437090418   -2.0786997799
24   

C        0.3736364037    0.9061408125   -0.4658281321
C        0.8691989193    0.0916738350    0.5288933241
C        1.8772197939    0.4674955574    1.5808858598
C       -0.6906076576    0.4279145816   -1.4091983685
C       -0.8421502941   -1.6189521544   -0.0086708915
C        3.7970152111    1.7530855307    2.4541217710
C        3.3745591043    1.6759861797   -0.0091213118
N        0.3620997606   -1.1978726697    0.6982819981
N       -0.7703837014   -1.0390427764   -1.3496716630
N        2.9443491185    1.3427255978    1.3438876760
O        1.7663912967   -0.0343766185    2.7085851454
H        0.7399530531    1.9170915835   -0.5781998370
H       -1.6515354216    0.8657997514   -1.1188963047
H       -0.4575388230    0.7513231573   -2.4287518283
H       -0.8752810900   -2.7108369306   -0.0760757027
H       -1.7348695457   -1.2625457537    0.5167210332
H        4.5161929499    0.9631565995    2.6920463267
H        3.1940237169    1.9667074716    3.3430082658
H        4.3416815704    2.6679391182    2.2003205496
H        2.9481828625    2.6336925554   -0.3225676815
H        3.0831616892    0.8960069778   -0.7200978473
H        4.4662067168    1.7480164667   -0.0501880227
H        0.6470077858   -1.6899968197    1.5441135379
H       -1.4980845131   -1.4079384748   -1.9522665691
24   

C        0.4489731238    0.8196573296   -0.5610142337
C        0.9112457098    0.0260376992    0.4688982998
C        1.9394109239    0.3808451097    1.5114207950
C       -0.6583359265    0.3643293694   -1.4665995919
C       -0.9469877259   -1.5702266432    0.0620752218
C        3.7814099279    1.7160681059    2.4681794189
C        3.3478165440    1.8057373936    0.0134520927
N        0.3015050358   -1.2019926460    0.7185738881
N       -0.8540740913   -1.0842198263   -1.3134380369
N        2.9357921152    1.3515071434    1.3359598394
O        1.9386489514   -0.2541581726    2.5762169747
H        0.8569624696    1.8042993929   -0.7335160411
H       -1.5792601213    0.8948258681   -1.2024049664
H       -0.4099775352    0.6014952474   -2.5060739423
H       -1.0677161979   -2.6579980437    0.0669449638
H       -1.7973832730   -1.1097739888    0.5766484639
H        4.5429293413    0.9479535275    2.6357831348
H        3.1791807077    1.8258082972    3.3762821939
H        4.2754957112    2.6753621517    2.2846585996
H        2.8514332776    2.7468894934   -0.2418525954
H        3.1262879302    1.0513916139   -0.7484806786
H        4.4305535900    1.9664172212   -0.0097898647
H        0.6021172174   -1.6926671102    1.5607881771
H       -1.6184993050   -1.4311786638   -1.8825955375
24   

C        0.5444641470    0.7147554814   -0.6589345677
C        0.9538934336   -0.0206939428    0.4376296436
C        2.0205366897    0.3049394845    1.4564972443
C       -0.6102616064    0.2762310486   -1.5133622324
C       -1.0454664943   -1.4816941708    0.1781459984
C        3.8117248487    1.6448288454    2.4981961321
C        3.2946135766    1.9785084341    0.0868043241
N        0.2337707767   -1.1556070116    0.7952473967
N       -0.9243191484   -1.1313045988   -1.2346041680
N        2.9505951188    1.3520086049    1.3555047925
O        2.1246653086   -0.4397804835    2.4431407386
H        1.0203230040    1.6381221366   -0.9445524058
H       -1.4802384742    0.9030539911   -1.2908818737
H       -0.3576553168    0.4007666776   -2.5712720800
H       -1.2521107332   -2.5513716084    0.2827484122
H       -1.8520242584   -0.9100060114    0.6499215497
H        4.6178910945    0.9073125045    2.5641505291
H        3.2337750015    1.6258368859    3.4282286868
H        4.2486269559    2.6441038773    2.4055137626
H        2.6584957888    2.8497555547   -0.0971387276
H        3.2053956561    1.2625654194   -0.7366392829
H        4.3375077666    2.3116021971    0.0979662761
H        0.5581926996   -1.6571659440    1.6227232225
H       -1.7203054741   -1.4616575094   -1.7693008130
24   

C        0.8367506534    0.5556476024   -0.6747343067
C        0.9097584525    0.2860574384    0.6754731253
C        2.1048905462    0.4530629003    1.5801136107
C       -0.3587911843    0.1475824897   -1.4803843387
C       -1.3275400879   -0.8149447570    0.5878760683
C        4.3205222081    1.3392732605    2.2114045005
C        2.9811062523    2.5121942859    0.4614654883
N       -0.1279671115   -0.3936210564    1.3070508014
N       -0.9723542467   -1.0103980299   -0.8174733816
N        3.1395378695    1.3714753537    1.3547609192
O        2.1582302384   -0.2372509251    2.6070543357
H        1.6903868157    0.9489006248   -1.2068501953
H       -1.0719118371    0.9761841649   -1.5378812829
H       -0.0470629597   -0.1210031491   -2.4951407615
H       -1.7005957617   -1.7549974457    1.0066835536
H       -2.1077751582   -0.0522975136    0.6806539139
H        5.1569220259    1.8566771059    1.7310213002
H        4.6351115654    0.3058075511    2.3915804593
H        4.1064529501    1.8195193821    3.1712996469
H        1.9277620944    2.7953350793    0.3683761152
H        3.3920721505    2.2862410089   -0.5271793973
H        3.5066914198    3.3833173386    0.8659460801
H        0.1232332704   -0.8480264340    2.1858519653
H       -1.7467949265   -1.3963085932   -1.3468400523
24   

C        0.8968800759    0.4409973759   -0.7242046403
C        0.9511232026    0.2225589343    0.6341303995
C        2.1611559364    0.3669378195    1.5172742123
C       -0.3266108902    0.0889876593   -1.5138486438
C       -1.3778413228   -0.6628800307    0.6055428532
C        4.3307382268    1.3565645463    2.1617778499
C        2.8619982801    2.5460356880    0.5223567272
N       -0.1422757083   -0.3260517206    1.3089877850
N       -1.0449892417   -0.9665095272   -0.7865858320
N        3.1209981859    1.3717907671    1.3467609829
O        2.3074322175   -0.4429251178    2.4420687848
H        1.7828800848    0.7563235395   -1.2580558446
H       -0.9630208479    0.9720066968   -1.6303296740
H       -0.0352726101   -0.2693224090   -2.5067386814
H       -1.8425878460   -1.5379708877    1.0707794847
H       -2.0788242622    0.1768474468    0.6552732834
H        5.1181983274    1.9516431529    1.6886921905
H        4.7111072833    0.3348823238    2.2662868520
H        4.1233363945    1.7635609036    3.1562909567
H        1.7885561911    2.7482818067    0.4497721215
H        3.2763277785    2.4092935809   -0.4810943405
H        3.3207497270    3.4315701986    0.9740133790
H        0.0847868635   -0.8119753951    2.1764892609
H       -1.8512064039   -1.3108040566   -1.2969189264
24   

C        0.9824858394    0.3085931320   -0.7817587796
C        1.0312674614    0.1366857259    0.5817427391
C        2.2574305897    0.2582687243    1.4441232181
C       -0.2710975320    0.0214035182   -1.5501516897
C       -1.3714810338   -0.5133274712    0.6133735606
C        4.3693847873    1.3435915773    2.1340433091
C        2.7874545696    2.5419048041    0.6040033082
N       -0.1018706154   -0.2755722777    1.2970648927
N       -1.0827971778   -0.9181161341   -0.7630794876
N        3.1388430685    1.3402127507    1.3512407642
O        2.4973590552   -0.6518936649    2.2471732873
H        1.8879083894    0.5484663983   -1.3236984261
H       -0.8242431567    0.9503680124   -1.7213570113
H       -0.0170979314   -0.4208416330   -2.5191858086
H       -1.9223056631   -1.3109277518    1.1219141146
H       -1.9801287141    0.3968605514    0.6239010907
H        5.1137855621    1.9991686607    1.6713571510
H        4.8024945258    0.3387424590    2.1788040632
H        4.1697884415    1.6914765798    3.1522535232
H        1.7017246729    2.6721857233    0.5516472264
H        3.1952215971    2.4944875529   -0.4102774956
H        3.1893233955    3.4280753576    1.1057060064
H        0.0876244747   -0.7777787711    2.1631158113
H       -1.9221421713   -1.2105848495   -1.2519318046
24   

C        1.0344440211    0.1651837293   -0.8630714906
C        1.0902957799    0.0597069192    0.5055315142
C        2.3387490393    0.1581812290    1.3406767982
C       -0.2505101989   -0.0558610052   -1.6009918079
C       -1.3636188219   -0.3402676399    0.6051007813
C        4.3785366931    1.3316321542    2.1075696387
C        2.6869394665    2.5353203171    0.7002421892
N       -0.0654517282   -0.2028933676    1.2626962066
N       -1.1399857043   -0.8560682653   -0.7460371779
N        3.1331803669    1.3080826648    1.3491553366
O        2.6758889284   -0.8240829976    2.0115199263
H        1.9490071304    0.3128342274   -1.4229282849
H       -0.7149846650    0.9074523027   -1.8346191826
H       -0.0514783432   -0.5863601689   -2.5380517095
H       -1.9902134156   -1.0412859326    1.1655670052
H       -1.8699029466    0.6298511704    0.5652383422
H        5.0727574550    2.0597726733    1.6764891495
H        4.8714157457    0.3542296467    2.0775459897
H        4.1814984528    1.5992460438    3.1502301585
H        1.5943447648    2.5874901558    0.6557567314
H        3.0910126872    2.5986182194   -0.3146598374
H        3.0231099244    3.4066179374    1.2713714144
H        0.0812973353   -0.6924683342    2.1429399272
H       -2.0116645111   -1.0932921194   -1.2075215381
24   

C        1.1142510323   -0.0044728755   -0.9282367037
C        1.2061771978   -0.0042587318    0.4414424750
C        2.4897199671    0.0856591881    1.2286670509
C       -0.2064554008   -0.1837656454   -1.6124357866
C       -1.2682628428   -0.1822869812    0.6378077114
C        4.4329686099    1.3517337054    2.1011079375
C        2.6157800852    2.5381975364    0.8438302692
N        0.0569163519   -0.1177305528    1.2513642886
N       -1.1340286137   -0.8264239291   -0.6690281495
N        3.1749711194    1.2960620271    1.3653132488
O        2.9405758024   -0.9359865549    1.7568533046
H        2.0193671304    0.0359846441   -1.5207067334
H       -0.5974386288    0.7904684460   -1.9229463412
H       -0.0795408826   -0.8100173358   -2.5016995582
H       -1.9404962251   -0.7717188473    1.2693257523
H       -1.6822398729    0.8254954529    0.5277411941
H        5.0646732918    2.1564659387    1.7121544698
H        4.9933137102    0.4173362903    1.9923298739
H        4.2413046693    1.5295706843    3.1637371759
H        1.5233168632    2.4961917212    0.7905776423
H        3.0140540176    2.7449880807   -0.1541367851
H        2.8683231885    3.3715151055    1.5071352183
H        0.1822603092   -0.5570520662    2.1599383777
H       -2.0370507302   -1.0227847057   -1.0874931188
24   

C        1.1200468948   -0.1955334991   -1.0064336434
C        1.2612317145   -0.0472146695    0.3506390832
C        2.5810579282    0.0450680418    1.0808868911
C       -0.2321525696   -0.3608840474   -1.6298515184
C       -1.2123819923   -0.0385376468    0.6343079080
C        4.4347980368    1.3722264801    2.0657519179
C        2.4907522931    2.5250737225    0.9733084175
N        0.1335388426   -0.0175343011    1.2036228181
N       -1.1694753333   -0.8274660073   -0.5965934113
N        3.1527108565    1.2875030104    1.3731310606
O        3.1457933313   -0.9871518958    1.4546248944
H        2.0050184846   -0.2760131823   -1.6249031195
H       -0.5683453986    0.5970661276   -2.0396506864
H       -0.1763490791   -1.0895062663   -2.4453259198
H       -1.9074115511   -0.5008799198    1.3423012371
H       -1.5497162478    0.9821035588    0.4251630924
H        5.0193825285    2.2158204523    1.6860260325
H        5.0336952099    0.4693247761    1.9091242946
H        4.2726950800    1.5048813406    3.1398529892
H        1.9207679108    2.3958942169    0.0483324970
H        3.2284619776    3.3113747007    0.7860063494
H        1.8120395626    2.8598626857    1.7640858476
H        0.2549022878   -0.3711326131    2.1485705488
H       -2.0979338456   -0.9985297212   -0.9678853291
24   

C        1.1355846006   -0.3610246758   -1.0461840079
C        1.3283708612   -0.0800351267    0.2831999303
C        2.6825793926    0.0264942361    0.9474206146
C       -0.2402913642   -0.5322280768   -1.6133153764
C       -1.1358900590    0.0567638666    0.6304215606
C        4.4342684750    1.3700214226    2.0987784666
C        2.3944692865    2.4838876098    1.1641253683
N        0.2256671295    0.0643175537    1.1612096890
N       -1.1646767957   -0.8517183045   -0.5146356456
N        3.1557448898    1.2625866995    1.4025658037
O        3.3604047149   -0.9866916971    1.1418565748
H        1.9973887760   -0.5377354669   -1.6775653671
H       -0.5503027388    0.3930172832   -2.1099213943
H       -0.2376564737   -1.3405246102   -2.3519495377
H       -1.8317103412   -0.2970638172    1.3976748822
H       -1.4290810297    1.0675693976    0.3276744065
H        5.2041144106    1.7438737503    1.4169139256
H        4.7613109977    0.4050400341    2.4986512283
H        4.3422703463    2.0558345360    2.9467424648
H        1.8615330334    2.4394549744    0.2090086692
H        3.0657351241    3.3471298388    1.1170531097
H        1.6709490870    2.6424198298    1.9698765102
H        0.3577322534   -0.1969218784    2.1337716987
H       -2.1103144506   -1.0138172439   -0.8442876148
24   

C        1.3037959843   -0.4720026862   -1.0236936025
C        1.5110209859   -0.0723983829    0.2735759628
C        2.8831141389    0.1112131348    0.8796423121
C       -0.0726997823   -0.7283053608   -1.5554907545
C       -0.9561981191    0.0239919029    0.6396775070
C        4.5490993324    1.4462541480    2.1400621144
C        2.4035313042    2.5020731027    1.3934023605
N        0.4105884925    0.1039490798    1.1504319728
N       -0.9747901587   -0.9797769906   -0.4217985477
N        3.2492739132    1.3168771346    1.4905550090
O        3.6976910643   -0.8163375132    0.8703464555
H        2.1622329494   -0.6789989220   -1.6509329403
H       -0.4143832486    0.1433407004   -2.1232694972
H       -0.0551312253   -1.5949988744   -2.2243979059
H       -1.6362688270   -0.2772312717    1.4426616375
H       -1.2740938876    0.9987352495    0.2546854008
H        5.3139819463    1.7144184332    1.4048118233
H        4.8367115605    0.5095713096    2.6288036022
H        4.5117653590    2.2188247750    2.9144820438
H        1.7793844572    2.4749805856    0.4945873460
H        3.0220147060    3.4023830123    1.3227443302
H        1.7581086381    2.5823425220    2.2733243141
H        0.5580838434   -0.0606763827    2.1413182903
H       -1.9195010500   -1.1910623822   -0.7251826334
24   

C       -0.1381397165    0.5905336994    0.7128458374
C        1.2057588728    0.4101298231    0.4873261585
C        2.2644390786    1.1339570470    1.2817625756
C       -1.1799094612   -0.0642764725   -0.1406990091
C        0.6631475371   -1.2123375083   -1.3356937024
C        4.4664614620    1.2695155294    2.3984994448
C        3.5623115792   -0.9580132750    1.7057800075
N        1.6310827222   -0.4164764492   -0.5841634116
N       -0.5692592668   -0.4346074254   -1.4253816114
N        3.4329501647    0.4955219183    1.7194359091
O        2.1146075007    2.3249142941    1.5702844548
H       -0.4483380671    1.2857182893    1.4838026058
H       -1.5614902485   -0.9562346113    0.3669568169
H       -2.0129972370    0.6274744132   -0.3030270462
H        1.0463075154   -1.4123211622   -2.3412755280
H        0.4822260293   -2.1666538395   -0.8297386960
H        4.1665386098    1.4777971740    3.4302834647
H        4.6398044009    2.2174001583    1.8782002272
H        5.4134691192    0.7207922913    2.4070431669
H        4.0628845145   -1.2993740617    2.6173599229
H        4.1444521598   -1.2819302022    0.8380347484
H        2.5833892656   -1.4469560371    1.6842633660
H        2.5195241916   -0.2063692149   -1.0275714658
H       -1.2395645497   -0.8607144190   -2.0564684057
24   

C       -0.2058469334    0.6151149377    0.5733658647
C        1.1394761991    0.3586140981    0.4373379877
C        2.1743083608    1.0792362928    1.2626124855
C       -1.2354854546   -0.0386578154   -0.2953510686
C        0.5983867835   -1.3631828847   -1.2973486518
C        4.4145137864    1.3350553641    2.2720514364
C        3.6443227785   -0.9262764889    1.5457457752
N        1.5679688609   -0.5630823864   -0.5527018493
N       -0.5785158864   -0.5284178241   -1.5149114482
N        3.4144885481    0.5137482169    1.5972200517
O        1.9348004482    2.2105146512    1.6951487951
H       -0.5242367384    1.3669189045    1.2859399755
H       -1.6954896052   -0.8716428599    0.2463758483
H       -2.0168851526    0.6846702747   -0.5505223401
H        1.0226938194   -1.6603954141   -2.2615156482
H        0.3355417828   -2.2642696514   -0.7330463720
H        4.1410240108    1.4785801287    3.3221226436
H        4.4951962514    2.3136228042    1.7870046270
H        5.3995339437    0.8604886303    2.2219904227
H        4.2422731258   -1.2430355302    2.4061531149
H        4.1738253303   -1.1982125235    0.6279625681
H        2.7023164896   -1.4808690567    1.6006303171
H        2.4865895899   -0.4303965871   -0.9625700483
H       -1.2373479953   -0.9637098890   -2.1517902511
24   

C       -0.2094761221    0.6981017528    0.5558973826
C        1.1217869391    0.3453356131    0.5089160721
C        2.1446417033    1.0133686579    1.3920490474
C       -1.2343798169    0.0917756350   -0.3519397521
C        0.5418439245   -1.4096083773   -1.1837589459
C        4.4093900607    1.3385062830    2.3192960728
C        3.7550076703   -0.9088403526    1.4657154687
N        1.5279672549   -0.6479666741   -0.4211244648
N       -0.5482863362   -0.4971142794   -1.5094329255
N        3.4361152511    0.5067166060    1.6172271824
O        1.8489117084    2.0521185234    1.9901319308
H       -0.5190639234    1.4879906456    1.2302326249
H       -1.7912174665   -0.6798582554    0.1898081636
H       -1.9388033349    0.8627219410   -0.6810622557
H        0.9945262255   -1.7874584257   -2.1058696118
H        0.1763400406   -2.2575116844   -0.5946962130
H        4.1756776759    1.3760166196    3.3879957414
H        4.4010919736    2.3568478951    1.9163159841
H        5.4210410190    0.9415824693    2.1889197106
H        4.4459909797   -1.2260170303    2.2532568147
H        4.2203620361   -1.0973789297    0.4938801247
H        2.8595593920   -1.5288874116    1.5734790174
H        2.4697943656   -0.5928573992   -0.7932307259
H       -1.2019866643   -0.9102237177   -2.1660893805
24   

C       -0.1970840330    0.7505880521    0.4815078388
C        1.1042245176    0.2970928691    0.5409100342
C        2.1042574706    0.9249758844    1.4829106116
C       -1.2105653363    0.1802986187   -0.4621131936
C        0.4715596856   -1.5173352824   -1.0725268672
C        4.3608700598    1.3470197711    2.3899817907
C        3.8832156491   -0.8495322156    1.3240012501
N        1.4769265405   -0.7813416147   -0.3107451806
N       -0.5092328071   -0.5413855612   -1.5315281171
N        3.4393543293    0.5053207968    1.6305300594
O        1.7487609024    1.8587199194    2.2082778835
H       -0.4904657561    1.5895770966    1.1016117596
H       -1.8716813871   -0.5017688509    0.0826309794
H       -1.8171572421    0.9878080855   -0.8850136007
H        0.9388535927   -2.0051229712   -1.9337094514
H       -0.0009260266   -2.2806063520   -0.4449914477
H        4.1630585977    1.2545856309    3.4625849335
H        4.2492762347    2.3960961538    2.0957906201
H        5.3985559922    1.0605339217    2.1921940662
H        4.6858539902   -1.1476521412    2.0060891825
H        4.2585367982   -0.9107003492    0.2983630168
H        3.0738241391   -1.5708222440    1.4730733437
H        2.4314840302   -0.8105860808   -0.6495051427
H       -1.1567535874   -0.9449892562   -2.2001456963
