16   

C        5.0202478945    1.6401471254    0.1071839300
C        5.3180363100    0.5088485494    0.8043048076
C        3.3530568224    0.2730439071   -0.2439690917
C        2.0817715281   -0.3296392602   -0.7324156873
C        0.4484413370   -2.1483168409   -0.3783324383
N        3.8079575174    1.4804326344   -0.5366910435
N        4.2730226147   -0.3802508101    0.5944220670
N        1.6820491508   -1.4600941398   -0.0278889350
O        1.4027939007    0.0992485286   -1.6584588247
H        5.6395106842    2.5287043088    0.0586346078
H        6.2145055777    0.3527220306    1.3934299353
H        0.2815676856   -2.9939367847    0.2957771117
H        0.5047718569   -2.5284593115   -1.4038527306
H       -0.4041590571   -1.4653030514   -0.2981592926
H        4.2229207112   -1.3464932199    0.9007262232
H        2.1569607258   -1.6884167992    0.8341393705
16   

C        4.9861859446    1.6555187351    0.1830407501
C        5.3487594571    0.4765543629    0.7620563803
C        3.3945584653    0.2445907742   -0.3003654320
C        2.1386443816   -0.3764598304   -0.8111455777
C        0.4182596148   -2.0829142860   -0.3433886632
N        3.7759467857    1.4996846652   -0.4669464992
N        4.3494493703   -0.4407354981    0.4674563641
N        1.6634747682   -1.4061600230   -0.0130035088
O        1.5204513376   -0.0155326709   -1.8059908738
H        5.5583278779    2.5755766534    0.2222542645
H        6.2575177901    0.3089156771    1.3287942263
H        0.1944278112   -2.8501969673    0.4039806089
H        0.4978559345   -2.5663831889   -1.3227992713
H       -0.4097017944   -1.3661426045   -0.3662908614
H        4.3446151276   -1.4356620143    0.6721129212
H        2.0850578585   -1.5385371563    0.8971060169
16   

C        4.9502140444    1.6578512879    0.2657431120
C        5.3902215489    0.4535339315    0.7288998932
C        3.4457440049    0.2042939721   -0.3405223938
C        2.2076256887   -0.4436321883   -0.8725694117
C        0.3995506671   -2.0286112416   -0.3282869807
N        3.7409106592    1.4916661625   -0.3845594771
N        4.4434863998   -0.4912298735    0.3570241674
N        1.6507981480   -1.3610274534   -0.0028496023
O        1.6643692149   -0.1681113871   -1.9359988131
H        5.4670407700    2.6030787510    0.3875659573
H        6.3143512801    0.2887270750    1.2711020453
H        0.1247693902   -2.7264922741    0.4685092525
H        0.5017451333   -2.5925833386   -1.2614660106
H       -0.4046850214   -1.2938315327   -0.4422261832
H        4.4875830355   -1.4991745633    0.4794182843
H        2.0270096700   -1.4126328268    0.9358825650
16   

C        4.8545275871    1.6507164412    0.3420259158
C        5.3947580572    0.4463456675    0.6846910529
C        3.4357236997    0.1489168161   -0.3386515308
C        2.2185095525   -0.5440366870   -0.8785176946
C        0.3433427177   -2.0213268717   -0.2751248522
N        3.6334666034    1.4534098987   -0.2780170278
N        4.5012559983   -0.5299006555    0.2651138688
N        1.5827692643   -1.3330718633    0.0515649966
O        1.7759564449   -0.4091511978   -2.0132885554
H        5.3097511048    2.6170598318    0.5274198217
H        6.3487848453    0.3031588785    1.1791515794
H        0.0234665971   -2.6433903166    0.5664102184
H        0.4858517694   -2.6682440551   -1.1472104150
H       -0.4469957869   -1.2956284686   -0.4947994702
H        4.6096911407   -1.5397576994    0.3090075582
H        1.9042677473   -1.2817790249    1.0111226343
16   

C        4.7886433976    1.6498544660    0.4711233585
C        5.4391555219    0.4656962284    0.6593057949
C        3.4417168515    0.1098057568   -0.2591196885
C        2.2624759378   -0.6234205979   -0.8437305193
C        0.3214996945   -2.0322499533   -0.2965690217
N        3.5462324206    1.4151692403   -0.0926296821
N        4.5935749747   -0.5355404178    0.2010105568
N        1.5021653305   -1.2756062150    0.0902469727
O        2.0410964115   -0.7342338282   -2.0440219029
H        5.1838449499    2.6278514848    0.7216460799
H        6.4335396210    0.3528756413    1.0759149866
H       -0.0944234478   -2.5524519787    0.5717000837
H        0.5779454150   -2.7793208673   -1.0550784970
H       -0.4425790731   -1.3601129347   -0.7013911469
H        4.7767101834   -1.5333236892    0.1315583036
H        1.6964895715   -1.0839257514    1.0666484967
16   

C        4.7727171431    1.6642555735    0.5605658669
C        5.5259011846    0.5273148268    0.5928197869
C        3.4829265686    0.0754595236   -0.1677803410
C        2.3526936735   -0.6885071675   -0.8087449715
C        0.3262435688   -2.0130190857   -0.3508785864
N        3.5081998981    1.3739116539    0.0754409548
N        4.7216673980   -0.5012626895    0.1212275927
N        1.4330520626   -1.1717456771    0.0785593208
O        2.3981726845   -1.1126386526   -1.9582885090
H        5.1139062783    2.6491103665    0.8590004916
H        6.5595170169    0.4640414136    0.9131230658
H       -0.1486464096   -2.4821315969    0.5161859852
H        0.6799575956   -2.8074238688   -1.0164407926
H       -0.4209711763   -1.4115342352   -0.8791565678
H        4.9742924441   -1.4671037603   -0.0736056862
H        1.4716721971   -0.8080939695    1.0246602566
16   

C        4.7297626992    1.6354181032    0.6855153093
C        5.5691679450    0.5677627237    0.5579079988
C        3.5089765870    0.0044672064   -0.0735871949
C        2.4153475424   -0.7846518920   -0.7339572275
C        0.2976873524   -1.9829344803   -0.3348643857
N        3.4558559847    1.2816662283    0.2708790863
N        4.8104368403   -0.4824912552    0.0597739001
N        1.3902791884   -1.1263463176    0.1003718062
O        2.5765249568   -1.3747357835   -1.7973264093
H        5.0176149792    2.6175729927    1.0431688512
H        6.6279323103    0.5651044085    0.7900768220
H       -0.2638931374   -2.3457897487    0.5313392046
H        0.6799171241   -2.8520772722   -0.8803307919
H       -0.3819551287   -1.4236542822   -0.9863467730
H        5.1171028331   -1.4017376734   -0.2507334532
H        1.3513196020   -0.6429557237    0.9918582435
16   

C        4.6986893186    1.5780807206    0.7684727054
C        5.5951044665    0.5841143574    0.5051462465
C        3.5371066733   -0.0768055277   -0.0343336599
C        2.4655950417   -0.8932826960   -0.6819451928
C        0.2638440003   -1.9435649955   -0.3159714880
N        3.4245249438    1.1675542884    0.4095093683
N        4.8737374814   -0.4778922622   -0.0225229797
N        1.3677143191   -1.0938773080    0.1031564785
O        2.6726782081   -1.5929050918   -1.6686625731
H        4.9462083880    2.5490877833    1.1823373991
H        6.6652020030    0.6378361835    0.6691249022
H       -0.3542255701   -2.2100056958    0.5467693062
H        0.6361321011   -2.8699751497   -0.7656451253
H       -0.3586720162   -1.4175559833   -1.0473046421
H        5.2132412722   -1.3526823645   -0.4170789447
H        1.3001835405   -0.5138881220    0.9340179226
16   

C        4.6763924127    1.5234276888    0.8343515885
C        5.6090418162    0.6081803562    0.4423746662
C        3.5610353481   -0.1427786646   -0.0108016826
C        2.5035071606   -0.9922977241   -0.6243145789
C        0.2343890371   -1.9000181524   -0.2871974699
N        3.4060102789    1.0583554817    0.5317606062
N        4.9161666429   -0.4593535341   -0.1115536529
N        1.3555431158   -1.0620168944    0.1079048631
O        2.7267729802   -1.7706117914   -1.5467772319
H        4.8950974134    2.4773250797    1.3008861248
H        6.6829308956    0.7168902998    0.5415903713
H       -0.4231619131   -2.0766054142    0.5694043689
H        0.5852465201   -2.8714552430   -0.6509490404
H       -0.3406731029   -1.4096590005   -1.0795447681
H        5.2754531502   -1.2915856623   -0.5752579396
H        1.2843525200   -0.4070039584    0.8816275704
16   

C        4.6660900697    1.4856448109    0.8907274335
C        5.6129699003    0.6490007833    0.3761321327
C        3.5769968610   -0.1703082301   -0.0072538154
C        2.5293508529   -1.0505446598   -0.5840817702
C        0.2050847748   -1.8263282569   -0.2982715550
N        3.4014719723    0.9772487981    0.6364891848
N        4.9360388047   -0.4116287428   -0.2097358847
N        1.3415912743   -1.0011233169    0.0788877280
O        2.7597399444   -1.8855308653   -1.4538914992
H        4.8702448667    2.4138754750    1.4123769586
H        6.6849442822    0.8038298946    0.4187988279
H       -0.4829540401   -1.9268588135    0.5466266674
H        0.5334416072   -2.8300330563   -0.5880786611
H       -0.3289886858   -1.3702830584   -1.1382720563
H        5.3025841149   -1.2027313836   -0.7359142228
H        1.2753973771   -0.2944796932    0.8071695507
16   

C        4.6710269456    1.4244592774    0.8135022253
C        5.6051639590    0.6301314669    0.2153111892
C        3.5719331028   -0.2383075699   -0.0590719385
C        2.5224963279   -1.1632207415   -0.5525045880
C        0.1494499434   -1.7944139354   -0.2922661045
N        3.4075611273    0.8824392189    0.6328224804
N        4.9213793219   -0.4360196279   -0.3521577387
N        1.3064237372   -0.9701807502    0.0213162391
O        2.7491972624   -2.0807332058   -1.3359333457
H        4.8830186865    2.3444209913    1.3465516787
H        6.6730577192    0.8147302458    0.1937714632
H       -0.4982284762   -1.8808910870    0.5854804450
H        0.4554354695   -2.8049523544   -0.5830419634
H       -0.4199393305   -1.3478306200   -1.1137270780
H        5.2765851330   -1.2160514578   -0.9022928012
H        1.2564592806   -0.1981438246    0.6820899085
16   

C        4.6952778837    1.4614792751    0.8046233391
C        5.6166133078    0.7359332541    0.1074237875
C        3.5961947305   -0.1768895304   -0.1130692496
C        2.5577950162   -1.1330819576   -0.5670933840
C        0.1465698769   -1.6661180856   -0.4126903462
N        3.4404956645    0.8883192009    0.6633734561
N        4.9330740861   -0.3158701737   -0.4864279006
N        1.3119505624   -0.8476541869   -0.1107331554
O        2.8009806267   -2.0931339034   -1.2924757740
H        4.9106426308    2.3528740710    1.3829359871
H        6.6762384433    0.9544382309    0.0411574182
H       -0.4049483579   -1.8854665113    0.5067407086
H        0.4359025316   -2.6212949492   -0.8634261230
H       -0.5121279370   -1.1403776188   -1.1110047460
H        5.2829853873   -1.0639533753   -1.0824889347
H        1.2562558187   -0.0387152583    0.5042485140
16   

C        4.6689113981    1.4313237509    0.8024182222
C        5.5721104667    0.7449482480    0.0444468674
C        3.5596424431   -0.1961683269   -0.1222476130
C        2.5285891396   -1.1854084028   -0.5204617882
C        0.0965376536   -1.6102867727   -0.5654101210
N        3.4205677424    0.8363842567    0.7001405841
N        4.8828189048   -0.3021354298   -0.5511653588
N        1.2586465261   -0.8040161030   -0.2252516832
O        2.7861542748   -2.2109259277   -1.1441266297
H        4.8933413775    2.3079815212    1.3995062306
H        6.6244544392    0.9838988160   -0.0575947115
H       -0.1533251701   -2.2799833992    0.2637548337
H        0.2855116847   -2.2119604477   -1.4607555617
H       -0.7611569747   -0.9630921563   -0.7725424872
H        5.2261204460   -1.0407270938   -1.1626357797
H        1.1752384077    0.0849382839    0.2625615129
16   

C        4.6549739943    1.5239315072    0.8331959363
C        5.5412396945    0.8990577224    0.0052896208
C        3.5629827459   -0.1221022534   -0.0793840855
C        2.5629940109   -1.1690732804   -0.4095087915
C        0.1453280163   -1.6182894913   -0.6065863465
N        3.4304608704    0.8752787027    0.7865086100
N        4.8641929512   -0.1613057001   -0.5809263407
N        1.2717681472   -0.7578005937   -0.2817001897
O        2.8608197410   -2.2400099463   -0.9303202041
H        4.8763504805    2.3920826299    1.4437003583
H        6.5756282738    1.1852873088   -0.1464814756
H       -0.0648916111   -2.2945851865    0.2284252364
H        0.3566296814   -2.2128652859   -1.5016064148
H       -0.7444861382   -1.0132409089   -0.8053419123
H        5.2101268537   -0.8804801654   -1.2135244067
H        1.1440872065    0.1639651380    0.1283812692
16   

C        4.6859597421    1.4894018567    0.8837846109
C        5.5132254586    0.9424520247   -0.0530375623
C        3.5535548279   -0.1174133853   -0.0491424296
C        2.5590459430   -1.1873761687   -0.3365048661
C        0.1574082859   -1.6317645212   -0.6845837594
N        3.4760627884    0.8128176236    0.8941469796
N        4.8115595453   -0.0944852233   -0.6521763286
N        1.2668597236   -0.7527567114   -0.3502165672
O        2.8736454718   -2.2851893811   -0.7863837856
H        4.9399107851    2.3202012190    1.5323891699
H        6.5267311055    1.2622693525   -0.2661632152
H       -0.0980753336   -2.2587894950    0.1759571047
H        0.4148636393   -2.2767740321   -1.5312157257
H       -0.7197789483   -1.0403323819   -0.9640002732
H        5.1272356338   -0.7743792266   -1.3412420217
H        1.1136395327    0.1891984277   -0.0009301764
16   

C        4.7337529467    1.4549381125    0.9497596150
C        5.4795380575    0.9874713355   -0.0924253082
C        3.5484611130   -0.1172586434    0.0247179265
C        2.5552748425   -1.2076892152   -0.2175901739
C        0.1852249644   -1.6695572718   -0.7218511248
N        3.5443931865    0.7478720267    1.0295240666
N        4.7449799623   -0.0285484573   -0.6880689746
N        1.2740826509   -0.7672921664   -0.3805686888
O        2.8848983468   -2.3359101423   -0.5703394172
H        5.0316967579    2.2497724726    1.6242017662
H        6.4630638906    1.3438639473   -0.3762298373
H       -0.1248741972   -2.2358456573    0.1625785381
H        0.4931455479   -2.3710596168   -1.5042320793
H       -0.6717739352   -1.1005633222   -1.0948405337
H        5.0165266002   -0.6658722504   -1.4339079489
H        1.0964248570    0.1978658607   -0.1194436225
16   

C        4.7946656196    1.4075726053    1.0216901343
C        5.4382780314    1.0242440703   -0.1183071142
C        3.5459282549   -0.1260865222    0.1188487462
C        2.5397718985   -1.2212609754   -0.0886865250
C        0.2151520708   -1.6959532444   -0.7598299400
N        3.6298413600    0.6723063237    1.1715854794
N        4.6625867206    0.0330119877   -0.7036326131
N        1.2903313059   -0.7783933421   -0.4148611470
O        2.8647610537   -2.3843387637   -0.3044731316
H        5.1474557694    2.1629255492    1.7147877318
H        6.3835606874    1.4183859900   -0.4732496224
H       -0.1639254290   -2.1871848672    0.1424613859
H        0.5672821656   -2.4600495242   -1.4606890201
H       -0.6060344172   -1.1513752873   -1.2356796729
H        4.8733939534   -0.5513110773   -1.5096101282
H        1.1072228487    0.2091027260   -0.2690712546
16   

C        4.8728793176    1.3131095570    1.0789613820
C        5.3811150602    1.0324571185   -0.1554990959
C        3.5580667180   -0.1884563501    0.2217104678
C        2.5165119499   -1.2627034616    0.0398764768
C        0.2412213800   -1.7171027992   -0.7889939043
N        3.7463317865    0.5402931567    1.3076440882
N        4.5591605251    0.0656707468   -0.7184184314
N        1.3287912553   -0.8083404739   -0.4595645859
O        2.7828741497   -2.4595384248    0.0333022656
H        5.2921023684    2.0252745887    1.7807343119
H        6.2690815426    1.4784405427   -0.5885969717
H       -0.2266486832   -2.0922104777    0.1272940310
H        0.6103882865   -2.5658965335   -1.3741694695
H       -0.5163447353   -1.1977837151   -1.3837958996
H        4.6805630976   -0.4415250706   -1.5917123215
H        1.1843758078    0.1956437709   -0.4606317963
16   

C        4.9088919862    1.2293853065    1.0922195839
C        5.2709049344    1.0536168237   -0.2111845939
C        3.5488199585   -0.2649533940    0.2944957795
C        2.4515522293   -1.2848950335    0.1341041782
C        0.2195616126   -1.6764570741   -0.8232269134
N        3.8334757394    0.4108532980    1.3921617092
N        4.4110109189    0.1022552693   -0.7431709416
N        1.3734538840   -0.8261212921   -0.5750923971
O        2.5324678289   -2.4526362597    0.4971760681
H        5.3906480450    1.9049516980    1.7900341731
H        6.0879669277    1.5606893858   -0.7115630025
H       -0.2840354457   -1.9151718749    0.1195721615
H        0.5287447305   -2.6080879868   -1.3087022332
H       -0.4911515440   -1.1657432060   -1.4801526344
H        4.4283265921   -0.3159997616   -1.6698296676
H        1.3389358518    0.1657172475   -0.7822826991
16   

C        5.0027979703    1.1251511207    1.1192752220
C        5.2175207476    1.0620305509   -0.2259893381
C        3.5691913204   -0.3222545370    0.3569981397
C        2.4314409051   -1.2928350116    0.2278915038
C        0.2355057112   -1.6485402884   -0.8276883373
N        3.9686570098    0.2737745894    1.4658413354
N        4.3069830349    0.1468641268   -0.7367205282
N        1.4489899161   -0.8691132509   -0.6365441346
O        2.3280830419   -2.3443314521    0.8487219047
H        5.5557932336    1.7478649146    1.8134235718
H        5.9710857853    1.6208067126   -0.7691926043
H       -0.3311122709   -1.7038635334    0.1079487588
H        0.4830775382   -2.6638197206   -1.1551865927
H       -0.3952065974   -1.1843737334   -1.5920293984
H        4.2226216303   -0.1866512160   -1.6933537637
H        1.5152203248    0.0751384545   -0.9981293013
16   

C        5.1143283977    1.0741160253    1.1294263709
C        5.2033122439    1.1018765091   -0.2306442968
C        3.5879986625   -0.3018244100    0.4075761471
C        2.4358386728   -1.2509323584    0.3205404692
C        0.3008205823   -1.6882435995   -0.8319930375
N        4.1040013460    0.2101701810    1.5112074467
N        4.2351449154    0.2330376325   -0.7153529524
N        1.5228885528   -0.9171695976   -0.6611770699
O        2.2413631979   -2.2006270130    1.0703224921
H        5.7385564610    1.6418843444    1.8101499714
H        5.9128945300    1.6896434056   -0.8017690739
H       -0.3050270431   -1.6469390000    0.0795621031
H        0.5395645111   -2.7337152375   -1.0540578034
H       -0.2881601025   -1.2848947286   -1.6613517931
H        4.0700371014   -0.0402909566   -1.6801900783
H        1.6295686795   -0.0220937370   -1.1225647097
16   

C        5.1720358802    1.0055678890    1.1436782794
C        5.1603089870    1.1350262076   -0.2127061499
C        3.5382372493   -0.2581225233    0.4426320914
C        2.3686705432   -1.1811280171    0.3785961021
C        0.3147058612   -1.7215090194   -0.8782731803
N        4.1632910409    0.1452717391    1.5358146059
N        4.1267149180    0.3374671853   -0.6843134041
N        1.5305477178   -0.9419754838   -0.7000397653
O        2.1020160996   -2.0492029784    1.2016935174
H        5.8664108666    1.4984174118    1.8147471393
H        5.8475960075    1.7416483086   -0.7913099607
H       -0.3404733479   -1.6086719093   -0.0077479677
H        0.5591424199   -2.7814772246   -1.0049267130
H       -0.2255731041   -1.3824564589   -1.7673885934
H        3.8950500017    0.1354184826   -1.6524529543
H        1.6723614286   -0.0962034356   -1.2368021747
16   

C        5.0834911061    1.3611886484   -0.2698330852
C        5.2529342843    0.4072236654    0.6871300880
C        3.2538098348    0.1682860226   -0.2934775001
C        1.8966973811   -0.3547988696   -0.6143295699
C        0.3674707527   -2.2780470418   -0.3637994018
N        3.8459737994    1.2043607713   -0.8645657948
N        4.0992647408   -0.3645241474    0.6950872476
N        1.6456277818   -1.6279538838   -0.1148627204
O        1.0445632117    0.2366355950   -1.2674758036
H        5.8044398068    2.1298518403   -0.5243256528
H        6.1276232374    0.3004181229    1.3184877539
H        0.3575033678   -3.2774916163    0.0815692640
H        0.1933168542   -2.3747240881   -1.4409146591
H       -0.4470810217   -1.6939273732    0.0774410081
H        3.8648490890   -1.1051549683    1.3481332004
H        2.4153102009   -2.1619297209    0.2635769635
16   

C        5.0683571957    1.6191907318    0.0278796347
C        5.2975946016    0.5658741856    0.8594307712
C        3.3389142602    0.3012334834   -0.1957897220
C        2.0515908334   -0.2837419663   -0.6657058408
C        0.4727365341   -2.1720701523   -0.4434734880
N        3.8600386838    1.4424515585   -0.6179987562
N        4.2104456698   -0.2886076960    0.7374377731
N        1.7083713091   -1.4962943763   -0.0755069432
O        1.3159363867    0.2185217347   -1.5080834091
H        5.7322380035    2.4648087871   -0.1119957884
H        6.1743330374    0.4398790816    1.4843481616
H        0.3892963439   -3.1252132463    0.0874375396
H        0.4557403993   -2.3731756692   -1.5200039512
H       -0.3912371541   -1.5510502160   -0.1835459680
H        4.0844726351   -1.1788047351    1.2060890693
H        2.2945981006   -1.8828254641    0.6487859870
