29   

C        1.1737983195   -1.0437480112    0.1871713365
C        1.5359117011   -2.1914456153    0.8948165649
C        1.0123726443    0.1668159758    0.8650483747
C        1.7281449340   -2.1279503815    2.2791406805
C        1.1999698789    0.2265164167    2.2513327617
C        1.9414811990   -0.1054455548    6.4290097741
C        2.8856773751   -1.1619405708    6.1909935279
C        1.5456123026   -0.9251809701    2.9872827599
C        1.2015942392    0.0118984549    5.2870464126
C       -0.0428085619    0.8342774760    5.2069153462
C       -2.2483067245    1.4706726573    4.3055592491
C       -1.4021903351   -0.8423477100    3.9394478434
N        2.7132778647   -1.6383660282    4.9856193755
N        1.7321341875   -0.8968843487    4.3879068174
N       -1.1475102277    0.5180650451    4.4048414133
O       -0.1681579353    1.7764317741    5.9949470229
H        1.0273432482   -1.0912694593   -0.8863073604
H        1.6710747212   -3.1326092904    0.3731764967
H        0.7473596180    1.0634755105    0.3157493006
H        2.0128801122   -3.0249844378    2.8186514974
H        1.0893105567    1.1820927740    2.7500060158
H        1.7921649840    0.4341067428    7.3573242711
H        3.6072026584   -1.5313224177    6.9105774729
H       -2.8542486661    1.2625799057    3.4180044162
H       -1.8642415684    2.4917493627    4.2092839546
H       -2.8834994778    1.4111945575    5.1949708520
H       -2.4547157566   -1.0996501696    4.0952287789
H       -0.8153873896   -1.5753561373    4.5011143696
H       -1.1801719932   -0.9364373953    2.8722929486
29   

C        1.1639810027   -1.0078248747    0.1712672571
C        1.5425467990   -2.1529865177    0.8740754083
C        0.9909023361    0.1983542919    0.8535095860
C        1.7384986062   -2.0916233245    2.2580395140
C        1.1827902674    0.2561205892    2.2391271761
C        1.8416430648   -0.1680514876    6.4564804586
C        2.7891380538   -1.2227024816    6.2199879199
C        1.5438129218   -0.8935881451    2.9715873660
C        1.1649125257    0.0005662406    5.2839304068
C       -0.0354678080    0.8745839356    5.1241344206
C       -2.2579329214    1.4497814597    4.2111498588
C       -1.4207530965   -0.8932238159    4.0188954953
N        2.6758007931   -1.6443280997    4.9867837356
N        1.7287160745   -0.8712500517    4.3734629259
N       -1.1705003145    0.4950785084    4.3962620596
O       -0.0809562703    1.9386467130    5.7490483772
H        1.0139789649   -1.0535303003   -0.9017872778
H        1.6868929675   -3.0908098207    0.3489427174
H        0.7139208683    1.0938472551    0.3081849812
H        2.0343125260   -2.9879789520    2.7926101716
H        1.0657584330    1.2113852503    2.7366748060
H        1.6595965511    0.3468728647    7.3926217476
H        3.4730391655   -1.6274158430    6.9570985973
H       -2.8671919478    1.1699719711    3.3458455469
H       -1.8622190770    2.4531806699    4.0217621865
H       -2.8932257241    1.4787545902    5.1018667418
H       -2.4748407123   -1.1408432571    4.1795286278
H       -0.8382295444   -1.5873158040    4.6324354138
H       -1.1841983291   -1.0557150472    2.9629589443
29   

C        1.1454391479   -0.9761079773    0.1833819228
C        1.5224090368   -2.1164203914    0.8945809910
C        0.9904971695    0.2385452258    0.8541972394
C        1.7331763852   -2.0420002251    2.2758400488
C        1.1983811355    0.3098662451    2.2366717683
C        1.7945349018   -0.1589855462    6.4883450778
C        2.7295513142   -1.2269376554    6.2587796651
C        1.5558640226   -0.8350579727    2.9794748228
C        1.1735022961    0.0527941478    5.2934849039
C        0.0269390464    0.9823926843    5.0549213552
C       -2.2091842063    1.5285836017    4.1407113750
C       -1.4301033497   -0.8460137384    4.1711796362
N        2.6590745078   -1.6105032877    5.0094423428
N        1.7509629454   -0.8029417044    4.3808963546
N       -1.1522630377    0.5645665419    4.4265726203
O        0.0913661450    2.1411820182    5.4759504359
H        0.9830692139   -1.0318066624   -0.8873777640
H        1.6534533957   -3.0608738722    0.3779831875
H        0.7158566459    1.1308884847    0.3025124900
H        2.0261615897   -2.9359800922    2.8158025174
H        1.0991385501    1.2745791588    2.7194938515
H        1.5941907909    0.3433737005    7.4272628823
H        3.3766914036   -1.6651725894    7.0097823709
H       -2.7899728264    1.2059485798    3.2707539729
H       -1.7892495523    2.5115823771    3.9033281458
H       -2.8774654430    1.6249422548    5.0018867209
H       -2.4922347375   -1.0552740567    4.3331913798
H       -0.8722255873   -1.4944532326    4.8540490260
H       -1.1773404909   -1.1069132595    3.1388328274
29   

C        1.1773522415   -0.9942784581    0.1561688954
C        1.5429844226   -2.1489172188    0.8496019671
C        1.0553291872    0.2153021692    0.8422299975
C        1.7733618601   -2.0939877124    2.2287060447
C        1.2841490474    0.2676053298    2.2221335443
C        1.8058550668   -0.3615989377    6.4940798048
C        2.7304938236   -1.4334931564    6.2402750450
C        1.6279853394   -0.8922531757    2.9491126779
C        1.2447127771   -0.0707515946    5.2871170736
C        0.1549721515    0.9173344362    5.0037230148
C       -2.0969059289    1.4841219884    4.1209636713
C       -1.3954608321   -0.9088407038    4.3140740617
N        2.7070708971   -1.7418747699    4.9681323129
N        1.8384089579   -0.8837426295    4.3497872294
N       -1.0736397355    0.5060135315    4.4754406513
O        0.3357994361    2.1149169581    5.2399922055
H        0.9987984020   -1.0347902366   -0.9126721780
H        1.6494760172   -3.0897005906    0.3208715370
H        0.7906641878    1.1191502632    0.3045608998
H        2.0559357607   -3.0001407648    2.7535896102
H        1.2142882453    1.2314859524    2.7116499128
H        1.5832760299    0.0972071783    7.4498660906
H        3.3393733468   -1.9261025705    6.9895698303
H       -2.6219238385    1.1652850868    3.2149416718
H       -1.6587516199    2.4649193863    3.9101720644
H       -2.8193038728    1.5880574371    4.9362302220
H       -2.4677682888   -1.0714409393    4.4617567952
H       -0.8750598830   -1.5242432469    5.0548592443
H       -1.1250612105   -1.2500908957    3.3098425913
29   

C        1.2177389512   -1.0011175045    0.1140947758
C        1.5974243095   -2.1461445316    0.8153673812
C        1.0793047006    0.2107777365    0.7924964180
C        1.8245839778   -2.0794182318    2.1944729990
C        1.3056506440    0.2749938591    2.1723270553
C        1.7024408925   -0.4469932998    6.4753093032
C        2.6633404647   -1.4867552696    6.2237941645
C        1.6627190991   -0.8753069547    2.9084394216
C        1.2135677790   -0.1039027503    5.2510641705
C        0.1515225683    0.9037023445    4.9194406818
C       -2.1453025623    1.4453095261    4.1289314503
C       -1.4526433426   -0.9386732945    4.4723942171
N        2.7232210351   -1.7279322175    4.9383513167
N        1.8712832429   -0.8589279695    4.3103314219
N       -1.1158577182    0.4813457754    4.5072342451
O        0.4045305853    2.1100874189    4.9669861610
H        1.0413692628   -1.0505266083   -0.9547028913
H        1.7172148176   -3.0887664927    0.2928547787
H        0.8045165513    1.1081303821    0.2490849311
H        2.1176547914   -2.9794584743    2.7239465552
H        1.2265168386    1.2431555863    2.6510650135
H        1.4210883462   -0.0359041006    7.4371094961
H        3.2392130231   -2.0045663373    6.9821316086
H       -2.2405329453    1.4803033926    3.0391741658
H       -1.9135933547    2.4523816345    4.4893465283
H       -3.1088372159    1.1612810439    4.5632274351
H       -2.5330886040   -1.0797649215    4.5749658605
H       -0.9785379776   -1.4790552475    5.2979925468
H       -1.1322476066   -1.3804946703    3.5233434297
29   

C        1.3473680461   -1.0828283456    0.0207573342
C        1.7223800559   -2.2035489903    0.7620863100
C        1.1815822998    0.1452675286    0.6622798948
C        1.9182892050   -2.0958191418    2.1434517767
C        1.3766026540    0.2500099397    2.0444607124
C        1.6085271037   -0.4672305331    6.3885371953
C        2.6124493036   -1.4722380584    6.1708094245
C        1.7299601805   -0.8738931003    2.8211885726
C        1.1899171973   -0.1014393362    5.1446022832
C        0.1405804474    0.9081074520    4.7721946150
C       -2.2073632803    1.4634960789    4.1826880284
C       -1.5483204888   -0.9059500040    4.6865679528
N        2.7575814324   -1.6752497004    4.8860214903
N        1.9169162870   -0.8176668693    4.2259872598
N       -1.1767349656    0.4991927764    4.5546533464
O        0.4462165882    2.0917545157    4.6070035900
H        1.1962150348   -1.1631641936   -1.0499887696
H        1.8634969312   -3.1589280977    0.2689957287
H        0.9112538766    1.0249482160    0.0885999992
H        2.2091917768   -2.9784139438    2.7024538815
H        1.2816926680    1.2315135704    2.4889281674
H        1.2624709023   -0.0862799767    7.3414877799
H        3.1579704041   -1.9928357124    6.9494034012
H       -2.3400396895    1.4695542315    3.0963593318
H       -1.9469925241    2.4748394069    4.5109138532
H       -3.1592588836    1.2063337381    4.6575596342
H       -2.6219803282   -1.0048912257    4.8739601548
H       -1.0305759933   -1.3761480899    5.5284094834
H       -1.3029713146   -1.4476506763    3.7672495531
29   

C        1.5948086926   -1.1314932220   -0.1230959708
C        1.8735524272   -2.2567452612    0.6527315183
C        1.4355365546    0.1094286067    0.4945047604
C        1.9794995903   -2.1395116745    2.0432508806
C        1.5419598264    0.2229309620    1.8856800711
C        1.4482481029   -0.5482033934    6.2533924527
C        2.4848383441   -1.5268128111    6.0811849723
C        1.7957307832   -0.9027477202    2.6957442119
C        1.1108955451   -0.1518180714    4.9932783361
C        0.0592284850    0.8472490384    4.6035484399
C       -2.3206967305    1.4849977218    4.3322650651
C       -1.7126016846   -0.8470067742    5.0212709928
N        2.7197865808   -1.6928993248    4.8052974769
N        1.9070760131   -0.8366558515    4.1082084460
N       -1.2934585303    0.5069624028    4.6734307994
O        0.3782588206    1.9764862922    4.2209970149
H        1.5143894836   -1.2180885459   -1.2009360830
H        2.0109057389   -3.2225375369    0.1793967800
H        1.2415670206    0.9929166116   -0.1036719024
H        2.1990851591   -3.0253554346    2.6288501977
H        1.4663498323    1.2131021275    2.3101506981
H        1.0289305796   -0.2022124026    7.1900480033
H        2.9879121804   -2.0563283953    6.8820239030
H       -2.5416278821    1.4425906910    3.2613079905
H       -2.0001841664    2.4996912268    4.5901683665
H       -3.2378902988    1.2827942429    4.8943842654
H       -1.8834180261   -0.9271216470    6.0991773074
H       -0.9664451000   -1.5893629133    4.7208963025
H       -2.6386486196   -1.1013045125    4.4960117797
29   

C        1.7710603340   -1.1430316315   -0.2347683838
C        1.9396221099   -2.2804912447    0.5552501660
C        1.6576824308    0.1081794729    0.3729633501
C        1.9791402697   -2.1641567618    1.9492675538
C        1.7010181091    0.2203527168    1.7678307154
C        1.3234727041   -0.6494591034    6.1307724500
C        2.4134160645   -1.5713046875    5.9822880304
C        1.8379651812   -0.9158510115    2.5891433817
C        1.0225179113   -0.2308855503    4.8669839108
C       -0.0455616581    0.7431753639    4.4728855156
C       -2.4143039581    1.4717884424    4.4737290718
C       -1.8022865543   -0.8111176420    5.3052528636
N        2.7158615657   -1.6863348384    4.7158679966
N        1.8956230142   -0.8500845275    4.0033158437
N       -1.3848978487    0.4828906593    4.7757218403
O        0.2399787320    1.8000665705    3.9018810902
H        1.7417748660   -1.2286778853   -1.3152411331
H        2.0440435483   -3.2545092351    0.0905066425
H        1.5499899572    0.9998024708   -0.2346794868
H        2.1165584943   -3.0571720659    2.5487835378
H        1.6733092217    1.2136314118    2.1920912204
H        0.8505362537   -0.3484496517    7.0573143932
H        2.9046516836   -2.0992487862    6.7914654223
H       -2.7677913185    1.3480808592    3.4454959207
H       -2.0296237561    2.4893041294    4.5989842961
H       -3.2607712079    1.3595212498    5.1585732098
H       -1.8027697135   -0.7932164870    6.3993933792
H       -1.1446788606   -1.6147143834    4.9584234521
H       -2.8104435098   -1.0547841452    4.9551965720
29   

C        1.8731364759   -1.2133555109   -0.2512377371
C        3.0025217938   -1.5391378383    0.5010789885
C        0.6760260694   -0.9051473557    0.3969932101
C        2.9329841639   -1.5526212244    1.8988077298
C        0.6108548098   -0.9133160007    1.7954386413
C        1.1145699122   -1.0142014572    6.1068991243
C        2.1168543189   -2.0364830569    5.9716027432
C        1.7430856264   -1.2256004086    2.5779363876
C        0.9058705891   -0.5408580848    4.8435311090
C        0.1120838850    0.6510356256    4.4087066115
C       -1.9427110550    2.0343477527    4.4716679340
C       -1.9304479213   -0.2417889846    5.5190229144
N        2.4656111009   -2.1453334289    4.7157373620
N        1.7121578722   -1.2573757605    3.9944477526
N       -1.2155258253    0.8162904459    4.8137613535
O        0.6328949512    1.5145926555    3.7006846186
H        1.9250342243   -1.2017640316   -1.3341187066
H        3.9357191031   -1.7797300831    0.0044532882
H       -0.2062745334   -0.6602350649   -0.1834040422
H        3.8187123716   -1.8058768332    2.4707882642
H       -0.3401971240   -0.6906614746    2.2603155746
H        0.6846187042   -0.6508096265    7.0317578378
H        2.5391259576   -2.6126627985    6.7867812964
H       -2.4248127744    1.9265692193    3.4952747644
H       -1.2705623695    2.8984050044    4.4437884263
H       -2.7068931525    2.2444512117    5.2267010431
H       -1.8032477370   -0.1327217074    6.6004954326
H       -1.5776794890   -1.2315515284    5.2115538491
H       -2.9987792260   -0.1981015293    5.2841508438
29   

C        1.9625782199   -1.2952202867   -0.2717922699
C        3.0938145852   -1.5121754316    0.5166039156
C        0.7251116621   -1.0803349903    0.3380664351
C        2.9852923446   -1.5110231227    1.9118683477
C        0.6212952530   -1.0724817739    1.7343233391
C        0.9848953688   -1.0989086144    6.0518406154
C        2.0298547181   -2.0806814954    5.9480298590
C        1.7529998512   -1.2752118605    2.5510857142
C        0.8075588372   -0.6158368565    4.7854583254
C        0.0318693726    0.5782836466    4.3326258500
C       -1.9026028241    2.1151939985    4.4971587694
C       -1.9508788565   -0.0781162339    5.6998116006
N        2.4397565959   -2.1547262022    4.7091427289
N        1.6818332730   -1.2894420980    3.9657088271
N       -1.2271041527    0.8751587022    4.8662178075
O        0.4936794417    1.3300982378    3.4714707121
H        2.0446855796   -1.2947329059   -1.3528186798
H        4.0581049128   -1.6790570751    0.0501189301
H       -0.1575803703   -0.9186739972   -0.2700536730
H        3.8710887286   -1.6796242987    2.5140607381
H       -0.3537623493   -0.9177499372    2.1777123465
H        0.5196640300   -0.7581392246    6.9677661553
H        2.4391876944   -2.6509625592    6.7738885789
H       -2.4620345184    1.9801615826    3.5664491675
H       -1.1811752906    2.9285107244    4.3653923873
H       -2.5936807305    2.4216845252    5.2887950653
H       -1.7256845302    0.0904796106    6.7573486084
H       -1.6975742465   -1.1091869178    5.4329616888
H       -3.0297179487    0.0315901141    5.5496508155
29   

C        2.1890475555   -1.5700467777   -0.1653550447
C        3.2987760170   -1.6410131506    0.6786683026
C        0.9092873758   -1.4550679722    0.3818679342
C        3.1261846446   -1.5939094450    2.0666082150
C        0.7412419848   -1.4006638630    1.7709607649
C        0.8900675200   -1.2537646922    6.0908241989
C        1.9789249305   -2.1904048068    6.0529356691
C        1.8486394885   -1.4548082732    2.6412542623
C        0.7604808170   -0.7808675991    4.8125864785
C        0.0067297344    0.4053014798    4.3073603893
C       -1.7969580130    2.0911590074    4.4691394436
C       -1.9124012283    0.0252659966    5.8676537226
N        2.4656986480   -2.2461550701    4.8425272906
N        1.7132889139   -1.4207112316    4.0503966737
N       -1.1764994150    0.8466721345    4.9137435256
O        0.3959766508    1.0184575997    3.3103786921
H        2.3207075535   -1.6046955866   -1.2408743570
H        4.2953019231   -1.7298558511    0.2611602454
H        0.0439957174   -1.4056338631   -0.2690874199
H        3.9940952363   -1.6498555467    2.7140591949
H       -0.2607736471   -1.3198525010    2.1728993678
H        0.3783976961   -0.9269250321    6.9859929895
H        2.3643982308   -2.7393309551    6.9043539851
H       -2.3983314510    1.9161483623    3.5717538132
H       -1.0352281799    2.8462155948    4.2475950455
H       -2.4390825246    2.4999103464    5.2557908055
H       -1.6017400327    0.2553868882    6.8913681961
H       -1.7635806049   -1.0406324804    5.6674817981
H       -2.9870416972    0.2147562111    5.7794098733
29   

C        2.7420119129   -0.9867770645   -0.0930223921
C        2.7254377537    0.0359213048    0.8584206389
C        2.2625914711   -2.2540393030    0.2441860641
C        2.2196677341   -0.2065563919    2.1415885826
C        1.7648361194   -2.4939070084    1.5298791952
C        0.5217643497   -1.5770176061    5.8752412891
C        1.2578279609   -2.7951289734    5.6852729183
C        1.7141936109   -1.4726266807    2.4967085428
C        0.5018802141   -0.9512793892    4.6548423656
C       -0.3477061885    0.1682939285    4.1472933270
C       -1.9737587740    2.0110473370    4.4251663829
C       -0.7311186430    1.1696015153    6.4148539890
N        1.6251444687   -2.8929999010    4.4376722896
N        1.2167671990   -1.7581934030    3.7907118083
N       -1.0411571534    1.0430141471    4.9967788042
O       -0.4298266536    0.3979882272    2.9376911475
H        3.1260461045   -0.7981439837   -1.0890862537
H        3.1013422118    1.0200230710    0.6034278922
H        2.2728446156   -3.0527853202   -0.4887083931
H        2.2175970875    0.5960258587    2.8687084494
H        1.3964310127   -3.4810248729    1.7854751315
H        0.0056372537   -1.3155854456    6.7878147917
H        1.4447591321   -3.5411117880    6.4490793892
H       -2.6847112732    2.3528944013    5.1840462456
H       -2.5559402668    1.5551963721    3.6172568920
H       -1.4297769232    2.8748114246    4.0304927826
H        0.3328262127    0.9903947432    6.5998111863
H       -1.3372684234    0.4745289254    7.0038864600
H       -0.9408352528    2.1873497645    6.7595396584
29   

C        2.7496576222   -0.9420417237   -0.0462679660
C        2.5591394693    0.0893479970    0.8758697487
C        2.4208222369   -2.2528355309    0.3038518895
C        2.0308140153   -0.1890491371    2.1424028937
C        1.8999991707   -2.5281819380    1.5732401324
C        0.3565483413   -1.6775391928    5.8404174414
C        1.1440703838   -2.8686702149    5.6810475480
C        1.6772491041   -1.5026319354    2.5115282427
C        0.3790611164   -1.0498206716    4.6238956977
C       -0.4803542886    0.0571704468    4.1083579227
C       -1.9463165409    2.0252060750    4.4215302885
C       -0.5030324758    1.2515675362    6.3073368515
N        1.5794983593   -2.9437567563    4.4522941034
N        1.1583423117   -1.8218538512    3.7898414179
N       -0.9987274012    1.0489809396    4.9510547846
O       -0.7360489795    0.1454218243    2.9048340872
H        3.1517611523   -0.7263646053   -1.0296679832
H        2.8185181867    1.1079140915    0.6109708919
H        2.5655545064   -3.0585851531   -0.4068443573
H        1.9000016918    0.6252310417    2.8437874733
H        1.6478315387   -3.5494292593    1.8360263770
H       -0.2178853619   -1.4221262732    6.7206091072
H        1.3199078867   -3.6122118187    6.4498457518
H       -2.5405867838    2.4592400926    5.2318890342
H       -2.6452940470    1.5482159224    3.7262969131
H       -1.4141624068    2.8266011618    3.8998281267
H        0.5470725685    0.9541270388    6.3919832496
H       -1.1057862472    0.6856761494    7.0242189484
H       -0.5517637000    2.3125066309    6.5729958079
29   

C        2.7491968687   -0.8179946815    0.0333205330
C        2.4327782468    0.2010326391    0.9338043145
C        2.5432596405   -2.1500605296    0.3959891385
C        1.9018737573   -0.1115242538    2.1911041985
C        2.0192944151   -2.4593953451    1.6562784769
C        0.2473073427   -1.7243923327    5.8556301049
C        1.0924923571   -2.8790641995    5.7176707567
C        1.6719845601   -1.4493195037    2.5738118178
C        0.3014002958   -1.0834634010    4.6494969952
C       -0.5526318550    0.0291167103    4.1342942633
C       -1.8486642224    2.1144408622    4.4559358448
C       -0.2841818599    1.3338428435    6.2454014656
N        1.5938250362   -2.9132854115    4.5110706100
N        1.1515583578   -1.8024286367    3.8430418466
N       -0.9114134342    1.1095449566    4.9478131250
O       -0.9594893640    0.0132212175    2.9705622574
H        3.1540900778   -0.5761908404   -0.9428723316
H        2.5978009734    1.2367100365    0.6595194454
H        2.7860008103   -2.9465821516   -0.2982319457
H        1.6802812324    0.6992543864    2.8728664428
H        1.8626931986   -3.4977137385    1.9265880797
H       -0.3714632544   -1.4863357028    6.7111649450
H        1.2646050267   -3.6257473513    6.4842593220
H       -2.3692580688    2.5904934361    5.2929357475
H       -2.6126971382    1.6570824011    3.8184610043
H       -1.3175531061    2.8804616487    3.8827453404
H        0.7422507266    0.9534402149    6.2597900000
H       -0.8630097695    0.8508262765    7.0386055147
H       -0.2270249959    2.4064177748    6.4570464516
29   

C        2.7665807268   -0.7653479998    0.1282794150
C        2.3336976206    0.2277669096    1.0084136144
C        2.6853312097   -2.1065239162    0.5054967894
C        1.8114658644   -0.1201545135    2.2598926342
C        2.1687186663   -2.4512277930    1.7596696893
C        0.2125666841   -1.8669729116    5.8991232049
C        1.1247348391   -2.9718112856    5.7757904710
C        1.7060922478   -1.4699981875    2.6580631826
C        0.2767980633   -1.2081992148    4.7051343263
C       -0.5889520402   -0.0975406828    4.1991355012
C       -1.7205792071    2.0869693571    4.5040078024
C       -0.0285454745    1.3067658386    6.1780140697
N        1.6769708541   -2.9543680738    4.5902829560
N        1.1959826240   -1.8599714072    3.9214251208
N       -0.7894879194    1.0590881819    4.9583089146
O       -1.1541739580   -0.2030682764    3.1093466093
H        3.1659719904   -0.4962109785   -0.8430647709
H        2.4032265815    1.2714124201    0.7233446799
H        3.0197150429   -2.8832902975   -0.1728842021
H        1.5070499501    0.6787475746    2.9226889596
H        2.1098207780   -3.4973111172    2.0390529589
H       -0.4408609120   -1.6604279861    6.7373622263
H        1.3096543804   -3.7205487828    6.5373759699
H       -2.1661463668    2.5997724683    5.3623084511
H       -2.5426423391    1.6485187991    3.9286545943
H       -1.2008942811    2.8198766471    3.8794212263
H        0.9707676282    0.8635149348    6.1189613366
H       -0.5548271763    0.8971013578    7.0456880611
H        0.1093485868    2.3826573414    6.3258060786
29   

C        2.6904903638   -0.6341018361    0.1097770785
C        1.3187717492   -0.4488608677    0.2881219684
C        3.4369959201   -1.2612586125    1.1076593884
C        0.6971436095   -0.8791607320    1.4664859581
C        2.8121608165   -1.6869435271    2.2852665472
C       -0.0710073091   -1.9974568124    5.7200146299
C        0.7399446861   -3.1610604794    5.5002765076
C        1.4337644973   -1.4858795379    2.5025972970
C        0.0332006179   -1.2568449377    4.5782598119
C       -0.6284140867    0.0574184245    4.2958157052
C       -1.0906076961    2.4177559372    4.8943256847
C        0.6622380650    1.1277843207    6.1353281348
N        1.2854988984   -3.0930517513    4.3144125970
N        0.8466647000   -1.9444739466    3.7077947572
N       -0.3786957252    1.1631457885    5.1133927948
O       -1.4220966647    0.1793742016    3.3577346148
H        3.1704937402   -0.3044547210   -0.8048520641
H        0.7271607453    0.0165454525   -0.4923987722
H        4.5003204507   -1.4229431323    0.9705406044
H       -0.3758727453   -0.7728086118    1.5350996556
H        3.4054435608   -2.1778423741    3.0486880932
H       -0.6483135029   -1.7676195603    6.6069470412
H        0.8872040585   -3.9674677450    6.2093798405
H       -1.1673605863    2.9787382651    5.8310910133
H       -2.1112625923    2.2338880399    4.5429834557
H       -0.5632515909    3.0278820314    4.1546261843
H        1.4736437476    0.4484788995    5.8548761152
H        0.2434047799    0.8113056378    7.0954693006
H        1.1083333065    2.1203470927    6.2541065299
29   

C        2.6615059747   -0.4987741756    0.2657597965
C        1.3000554586   -0.2753652043    0.4736186272
C        3.3928511502   -1.2224548000    1.2076813829
C        0.6739651831   -0.7632289785    1.6266868413
C        2.7635934874   -1.7089011302    2.3591717461
C       -0.2096679681   -2.1292125508    5.7537304681
C        0.6672989818   -3.2475823896    5.5486955311
C        1.3953505256   -1.4738303885    2.6077276404
C       -0.0835061521   -1.3596964462    4.6353602116
C       -0.7724555528   -0.0572251584    4.3434924891
C       -1.0515938927    2.3744265799    4.7351571057
C        0.8004818135    1.1206424245    5.8672246417
N        1.2690201866   -3.1236241749    4.3940402365
N        0.8049128516   -1.9821670550    3.7929969639
N       -0.3626765307    1.1131876694    4.9858214882
O       -1.7060948214   -0.0077137179    3.5378058060
H        3.1451665733   -0.1223772245   -0.6287254774
H        0.7195753985    0.2663891960   -0.2649880205
H        4.4485584736   -1.4109833772    1.0476687891
H       -0.3918539456   -0.6126271046    1.7142142701
H        3.3486290426   -2.2712344364    3.0784625136
H       -0.8370858879   -1.9438098132    6.6167671374
H        0.8183280133   -4.0633552663    6.2462035891
H       -0.9871411729    3.0227111123    5.6147463230
H       -2.1147669606    2.2092228561    4.5321212474
H       -0.6010416937    2.8872960308    3.8798619033
H        1.5343414000    0.3642571486    5.5715123051
H        0.4947941405    0.9377194571    6.9019164443
H        1.3076689454    2.0891614247    5.8137456169
29   

C        2.5649624502   -0.2870960261    0.4779894178
C        1.2080056748   -0.0651032150    0.7158818285
C        3.2970410022   -1.0886784318    1.3541873082
C        0.5871120144   -0.6317856366    1.8351517698
C        2.6736249085   -1.6552440416    2.4715649181
C       -0.3609870748   -2.2752633380    5.8150112568
C        0.5590032091   -3.3561554381    5.5901295522
C        1.3111638094   -1.4241492152    2.7513050149
C       -0.2064912526   -1.4432217280    4.7471847257
C       -0.9112521340   -0.1459593094    4.4653310482
C       -1.0007245134    2.3324157097    4.5857654057
C        0.9521722416    1.0815889277    5.5482681352
N        1.2044237539   -3.1559669516    4.4692807114
N        0.7277699842   -1.9998659459    3.9088703224
N       -0.3346190419    1.0629927809    4.8598701918
O       -1.9747776908   -0.1378004425    3.8403775780
H        3.0452043965    0.1521391275   -0.3893267046
H        0.6281550946    0.5392539909    0.0270037332
H        4.3493663994   -1.2745073514    1.1701212497
H       -0.4758494068   -0.4693010673    1.9516601168
H        3.2597401064   -2.2750153141    3.1412138018
H       -1.0317363715   -2.1537088876    6.6566256264
H        0.7067622619   -4.2019161024    6.2517026517
H       -0.8324089400    3.0369275152    5.4061710321
H       -2.0835197488    2.2028753123    4.4899231664
H       -0.6141586185    2.7656613717    3.6580711557
H        1.0362704349    0.2507482030    6.2556917596
H        1.0687880115    2.0055474895    6.1230097269
H        1.7683612693    1.0170356167    4.8213281971
29   

C        2.5195856717   -0.1958249441    0.6064843914
C        1.1574620139   -0.0135027996    0.8502606266
C        3.2744948950   -0.9948431098    1.4659622566
C        0.5539006571   -0.6169274816    1.9597044758
C        2.6688406110   -1.5982459178    2.5737033982
C       -0.4553529909   -2.4056338196    5.8291920447
C        0.5166146664   -3.4436418661    5.6159507588
C        1.3023351951   -1.4062040184    2.8594286631
C       -0.2625598471   -1.5171608891    4.8148237542
C       -0.9730050314   -0.2187900299    4.5643216072
C       -0.9752332790    2.2685893684    4.5005695071
C        1.0298251521    1.0241930623    5.3459237128
N        1.2242567962   -3.1702056918    4.5489132690
N        0.7359187914   -2.0097754997    4.0101018349
N       -0.3191616529    0.9963552822    4.7886129726
O       -2.1226996172   -0.2166835826    4.1173351724
H        2.9868575586    0.2725828049   -0.2526588255
H        0.5615168183    0.5896213913    0.1741394884
H        4.3309625044   -1.1495052094    1.2766003694
H       -0.5129476403   -0.4820592413    2.0877664412
H        3.2709925177   -2.2149347917    3.2320415208
H       -1.1768934868   -2.3414321261    6.6344686901
H        0.6552166339   -4.3120759262    6.2495479415
H       -0.7831602699    2.9854872157    5.3048380330
H       -2.0611185692    2.1579065739    4.4203467634
H       -0.5970177992    2.6781181282    3.5587139525
H        1.1705225670    0.2274822827    6.0834009277
H        1.2140783939    1.9730361750    5.8592687174
H        1.7711835403    0.9101105858    4.5484663181
29   

C        2.4917606803   -0.1853968793    0.6537648435
C        1.1289357786   -0.0171038234    0.9048593627
C        3.2608141203   -0.9736802495    1.5110109884
C        0.5387558427   -0.6240151907    2.0195784739
C        2.6683888802   -1.5812434494    2.6236173207
C       -0.5426446432   -2.4975076836    5.7931796513
C        0.4584373783   -3.5110516377    5.5960543916
C        1.3018965341   -1.4029745650    2.9155844932
C       -0.3044776188   -1.5586529115    4.8350289968
C       -1.0105165632   -0.2511427580    4.6457890308
C       -0.9971425848    2.2271591368    4.4742335808
C        1.0716709696    1.0113982755    5.1795468176
N        1.2253947269   -3.1807411753    4.5877579132
N        0.7459152466   -2.0083626394    4.0691247716
N       -0.3217395565    0.9626143857    4.7465515489
O       -2.2195759183   -0.2362045782    4.3993686219
H        2.9490116344    0.2858936746   -0.2092245846
H        0.5230469877    0.5783622829    0.2307721480
H        4.3179015871   -1.1168205727    1.3159525804
H       -0.5281036097   -0.4986839635    2.1598066764
H        3.2796614975   -2.1901736135    3.2808974057
H       -1.3066941540   -2.4738508037    6.5608002792
H        0.5748941287   -4.4025657339    6.2014323776
H       -1.3368445170    2.6834535294    5.4089612775
H       -1.8601123845    2.0874895815    3.8153330797
H       -0.3134979773    2.9152068168    3.9668870215
H        1.3118894019    0.1788036701    5.8484150326
H        1.2615080420    1.9334271202    5.7380411891
H        1.7418246734    0.9821452851    4.3146279533
29   

C        0.8285946984   -1.7965530831    0.3697112135
C        0.0697890876   -2.2706502482    1.4415535119
C        1.8927765020   -0.9250810667    0.6069285914
C        0.3657717158   -1.8627626829    2.7475317444
C        2.1891168224   -0.5216126699    1.9135361112
C        1.6508278516   -0.1068240750    6.4780566967
C        2.9988994002   -0.0064767450    5.9880041267
C        1.4212317575   -0.9636254037    3.0081652711
C        0.8812775643   -0.3899416200    5.3891353612
C       -0.6118978269   -0.4657965447    5.3659277588
C       -2.8276942520    0.0782692192    4.4023259310
C       -0.7956631540    1.2890763959    3.5954813744
N        3.0132192017   -0.2201393487    4.6968205887
N        1.7330983056   -0.5135367663    4.3132439591
N       -1.3797433656    0.2516433190    4.4409105319
O       -1.1962928435   -1.1337085402    6.2242191178
H        0.5985718036   -2.1114003811   -0.6421956611
H       -0.7461389925   -2.9624856529    1.2635616710
H        2.4918143557   -0.5605040413   -0.2202810586
H       -0.2241081159   -2.2741528328    3.5577491869
H        3.0192610387    0.1556136182    2.0833143527
H        1.3115552096    0.0530309779    7.4946209018
H        3.8678862002    0.2336412854    6.5897110102
H       -3.3101601173    0.7602038090    5.1092138843
H       -3.1058947991   -0.9507256897    4.6528500375
H       -3.2058684930    0.2798042997    3.3950482867
H       -0.5722137908    0.8930679782    2.6000091911
H        0.1200278407    1.6965106599    4.0353444241
H       -1.4944549429    2.1248780448    3.4892668493
29   

C        0.8403557387   -1.7953381406    0.3554906302
C        0.0542602644   -2.2390945918    1.4210639593
C        1.9131773228   -0.9355370165    0.5972067068
C        0.3323051520   -1.8125309079    2.7252375274
C        2.1920738324   -0.5145910502    1.9020078568
C        1.6007787281   -0.1432502786    6.4680374176
C        2.9573603290   -0.0758726181    5.9978632460
C        1.3975542863   -0.9268762948    2.9888011572
C        0.8285750224   -0.3507885334    5.3626327906
C       -0.6643652449   -0.3104450103    5.3607007548
C       -2.8701293438    0.2229801791    4.3842613130
C       -0.8168304650    1.2629994108    3.4198823007
N        2.9788924625   -0.2352535083    4.6995900501
N        1.6935603540   -0.4650112989    4.2922380453
N       -1.4145244550    0.3164133915    4.3575070294
O       -1.2704062996   -0.7547579636    6.3405667141
H        0.6245239062   -2.1241686885   -0.6551147670
H       -0.7691565444   -2.9209208479    1.2391360512
H        2.5326960676   -0.5940298913   -0.2247950269
H       -0.2794525500   -2.1936261274    3.5341282212
H        3.0296088869    0.1521912010    2.0771214142
H        1.2554173857    0.0018866876    7.4850485617
H        3.8270516061    0.1076025087    6.6182019273
H       -3.2842139054    0.9505085523    5.0892795393
H       -3.1865970326   -0.7824517984    4.6812941796
H       -3.2824772593    0.4146892613    3.3885422783
H       -0.6564016333    0.7927376445    2.4449559708
H        0.1338643140    1.6539207334    3.7952245609
H       -1.4787590223    2.1241737732    3.2840579708
29   

C        0.8726207170   -1.7710411069    0.3557224973
C        0.0923763932   -2.2267278606    1.4209108233
C        1.9336759846   -0.8966974669    0.5981157515
C        0.3648869249   -1.7978674712    2.7256681853
C        2.2073161098   -0.4740200797    1.9034002959
C        1.6356216676   -0.2560154847    6.4841671183
C        2.9905023626   -0.1842097874    6.0114489445
C        1.4187006134   -0.8992300948    2.9891091723
C        0.8486586548   -0.3790486702    5.3747629033
C       -0.6385502552   -0.2458099821    5.4150934510
C       -2.8663125228    0.2413284707    4.4763738249
C       -0.8441105485    1.1833561255    3.3703984918
N        3.0021869309   -0.2591247748    4.7061106453
N        1.7112774910   -0.4421551600    4.2940416128
N       -1.4114329251    0.2891689518    4.3757827618
O       -1.2151247553   -0.4913273187    6.4788148774
H        0.6614711624   -2.1015582420   -0.6553351009
H       -0.7220707776   -2.9189047614    1.2378166083
H        2.5485352280   -0.5458549763   -0.2234851831
H       -0.2419896851   -2.1827677475    3.5365878658
H        3.0364377740    0.2026448489    2.0808866123
H        1.2999092950   -0.1509644196    7.5095640177
H        3.8661661974   -0.0535543251    6.6367363207
H       -3.2268728197    1.0287270811    5.1457573122
H       -3.1922047567   -0.7308029102    4.8612378740
H       -3.3217223865    0.3735726159    3.4897973824
H       -0.7366276513    0.6705796668    2.4099440372
H        0.1268351961    1.5772760496    3.6853467847
H       -1.4998923337    2.0479729876    3.2266289108
29   

C        0.9088702724   -1.7442751751    0.3592054784
C        0.1299043198   -2.2120182996    1.4203934436
C        1.9546559117   -0.8528810827    0.6067879631
C        0.3887181985   -1.7784344573    2.7265122876
C        2.2147044338   -0.4257412781    1.9133770750
C        1.6306093058   -0.3522692732    6.4976229171
C        2.9881991683   -0.2890696645    6.0329204243
C        1.4270083080   -0.8636032674    2.9942629468
C        0.8396798440   -0.3864030081    5.3829921666
C       -0.6360253400   -0.1487654662    5.4518281987
C       -2.8833158486    0.2753373318    4.5415578906
C       -0.8961312546    1.1201994928    3.3142005649
N        3.0022401319   -0.2829181009    4.7260955828
N        1.7089684218   -0.4093213094    4.3016038114
N       -1.4326200525    0.2812962757    4.3819817335
O       -1.1724074236   -0.1844767379    6.5623258979
H        0.7087822388   -2.0785507401   -0.6528740447
H       -0.6727096699   -2.9167094290    1.2329227234
H        2.5686959550   -0.4930187146   -0.2115394061
H       -0.2164708715   -2.1685067974    3.5364155594
H        3.0330305175    0.2623897822    2.0969545404
H        1.2980855690   -0.2809228501    7.5271146438
H        3.8645994021   -0.2170963211    6.6666246414
H       -3.2027868855    1.1299321411    5.1464957574
H       -3.2101106760   -0.6484944587    5.0305938658
H       -3.3752592310    0.3235016511    3.5649068824
H       -0.8295569342    0.5627202441    2.3754123538
H        0.0878363791    1.5211757584    3.5745679292
H       -1.5504268774    1.9828556024    3.1527555242
