16   

C        0.5835530848    0.8867059067    1.7731429566
C        0.3344248392    0.9003437858    3.1258243830
C       -0.2610893350    0.1632356981    0.9623554706
C       -4.2782736321   -1.9971501626    4.4797688908
C       -4.3309925544   -2.6059299503    3.2689068084
C       -1.4934568340   -0.4679937987    2.7986909337
C       -2.6556103790   -1.2100371894    3.3143732217
N       -0.6923707114    0.2317340709    3.6338208884
N       -1.2902884055   -0.5056209028    1.4705701510
N       -3.2196027328   -1.1199490757    4.4892672797
O       -3.3168739468   -2.1251997808    2.5131283774
H        1.4201590759    1.4312798716    1.3593068202
H        0.9823969729    1.4630426092    3.7882225551
H       -0.0863612253    0.1381448313   -0.1071897651
H       -4.9602492430   -2.1724524964    5.3035666150
H       -5.0579890545   -3.3470981295    2.9599878076
16   

C        0.5779208960    0.8955902666    1.7741235636
C        0.3873381607    0.8314877909    3.1350282007
C       -0.3155477209    0.2382499036    0.9590642890
C       -4.3332487077   -1.9259441730    4.4425685308
C       -4.2549064908   -2.6873757538    3.3224353787
C       -1.4777479449   -0.4832503314    2.8063988359
C       -2.6427222414   -1.2214117697    3.3261236023
N       -0.6297657418    0.1509907733    3.6470008320
N       -1.3356500983   -0.4417875513    1.4708379040
N       -3.3131256816   -1.0040693353    4.4248001171
O       -3.1949212240   -2.2602708286    2.5977582708
H        1.4065856735    1.4499023248    1.3572467442
H        1.0740293377    1.3420803911    3.8006267293
H       -0.1878164703    0.2761326774   -0.1167325381
H       -5.0801116667   -2.0258845680    5.2214648919
H       -4.9244179897   -3.4954146580    3.0538842383
16   

C        0.5647724029    0.8994386350    1.7805777290
C        0.4333204774    0.7555663464    3.1426660663
C       -0.3807411875    0.3146708334    0.9684843749
C       -4.3980491461   -1.8609459087    4.3988950859
C       -4.1905823175   -2.7575121051    3.4013766797
C       -1.4752862876   -0.4932138506    2.8191821012
C       -2.6448301174   -1.2267187641    3.3449546727
N       -0.5769306815    0.0677142754    3.6588296894
N       -1.3944189507   -0.3722256736    1.4839204559
N       -3.4176458492   -0.8981300261    4.3419975164
O       -3.0873180561   -2.3761380852    2.7165410982
H        1.3877708218    1.4598285026    1.3605997195
H        1.1615841923    1.2087345420    3.8056438019
H       -0.3000938417    0.4168529763   -0.1076891963
H       -5.2073395814   -1.8956491591    5.1188438731
H       -4.8021026446   -3.6259505139    3.1888719406
16   

C        0.5594685160    0.9070925718    1.7764765485
C        0.4816147660    0.6759653478    3.1309731168
C       -0.4402773644    0.4096315666    0.9706461989
C       -4.4684553078   -1.7987561239    4.3146765136
C       -4.1283376065   -2.8073900379    3.4721093337
C       -1.4813653195   -0.4822925105    2.8107191904
C       -2.6595605159   -1.2108311084    3.3375966994
N       -0.5296213734   -0.0116123776    3.6461534718
N       -1.4549736009   -0.2768829486    1.4846615471
N       -3.5330299148   -0.7959078995    4.2082981269
O       -2.9854635398   -2.4569224514    2.8372812735
H        1.3830993882    1.4673867943    1.3575978233
H        1.2535606867    1.0592984917    3.7885623844
H       -0.4019100981    0.5813963944   -0.0989927898
H       -5.3382991615   -1.7842276377    4.9609358438
H       -4.6767324351   -3.7307520726    3.3307701369
16   

C        0.5685586466    0.9024958831    1.7832549422
C        0.5310361167    0.5741577127    3.1194793034
C       -0.4846025604    0.5138838054    0.9852718417
C       -4.5417926366   -1.7494448963    4.2169437092
C       -4.0634042529   -2.8438133298    3.5711486087
C       -1.4997784989   -0.4566916257    2.7973529361
C       -2.6907725131   -1.1803801207    3.3168223428
N       -0.4935801491   -0.1009196603    3.6252179411
N       -1.5121980661   -0.1604925895    1.4896705408
N       -3.6616811886   -0.7073330203    4.0382544482
O       -2.8887159422   -2.5072608894    2.9889041789
H        1.4028539673    1.4527377432    1.3722161853
H        1.3464512190    0.8692040257    3.7701059058
H       -0.4776292579    0.7619188545   -0.0699721241
H       -5.4679750114   -1.7039659564    4.7778503845
H       -4.5391822513   -3.8159761700    3.5280302235
16   

C        0.5729516179    0.8983403793    1.7921319842
C        0.5548584186    0.4512958004    3.0937148288
C       -0.5247833101    0.6455571818    0.9998023973
C       -4.6327492675   -1.7127985202    4.0829997006
C       -4.0183437252   -2.8520993994    3.6729577387
C       -1.5489509433   -0.4156586591    2.7548189642
C       -2.7533230178   -1.1393395868    3.2498830875
N       -0.4948982379   -0.2045092753    3.5727950427
N       -1.5764881397   -0.0104606281    1.4779384327
N       -3.8145575981   -0.6419060840    3.8064434467
O       -2.8208266737   -2.5140991767    3.1401743919
H        1.4273667460    1.4331915389    1.4026797051
H        1.4067676998    0.6348613902    3.7385586051
H       -0.5328126788    0.9856002746   -0.0294764398
H       -5.6083506904   -1.6570309167    4.5516090524
H       -4.4165950468   -3.8558933867    3.7573835203
16   

C        0.5783778254    0.9009228459    1.7988119879
C        0.5800995051    0.3316502544    3.0516665959
C       -0.5534026927    0.7716529962    1.0251033460
C       -4.6897698385   -1.7238211154    3.9343197475
C       -3.9617015306   -2.8581855538    3.7716347493
C       -1.5753462498   -0.4000753966    2.7110917457
C       -2.7829038375   -1.1348424342    3.1739509294
N       -0.4841106608   -0.3200193321    3.5038144638
N       -1.6187545650    0.1188600123    1.4763408526
N       -3.9230281567   -0.6454708796    3.5578152902
O       -2.7442766196   -2.5101296781    3.2932885147
H        1.4442947274    1.4328662948    1.4314139369
H        1.4598726915    0.4137266193    3.6797859828
H       -0.5769859609    1.2066807146    0.0324813310
H       -5.7073152727   -1.6761582546    4.3042233078
H       -4.2958999225   -3.8655570904    3.9880639116
16   

C        0.5786343679    0.9159483431    1.8043342006
C        0.6126025466    0.2448818608    3.0051722973
C       -0.5852094681    0.8795683969    1.0693350284
C       -4.7183795416   -1.7400899748    3.8168770904
C       -3.9175659555   -2.8336482164    3.8925628393
C       -1.5766016481   -0.3981200293    2.6974939077
C       -2.7800939182   -1.1407983584    3.1415150940
N       -0.4517832406   -0.4139245076    3.4464729015
N       -1.6504791918    0.2192979022    1.5091575262
N       -3.9783566284   -0.6785839134    3.3504301465
O       -2.6802937941   -2.4777332273    3.4748037865
H        1.4446615430    1.4540426135    1.4462782038
H        1.5183547178    0.2515869655    3.6008564701
H       -0.6344177137    1.3947434854    0.1168268633
H       -5.7677966116   -1.7080625929    4.0855581557
H       -4.2158460921   -3.8187360502    4.2301283232
16   

C        0.5721952458    0.9272288511    1.8048548624
C        0.6423172485    0.1711932485    2.9524111131
C       -0.6216457697    0.9643257057    1.1197600749
C       -4.7340818296   -1.7785981234    3.7100790129
C       -3.8925220526   -2.8015160652    4.0062977474
C       -1.5707774573   -0.4111713810    2.6943552372
C       -2.7686437239   -1.1575242146    3.1312680206
N       -0.4159727998   -0.4988836349    3.3914319658
N       -1.6808212062    0.2929535143    1.5568374322
N       -4.0049188901   -0.7459769222    3.1683711019
O       -2.6394767316   -2.4302732958    3.6541373524
H        1.4334222199    1.4744235868    1.4490216285
H        1.5720077894    0.1194597155    3.5076316341
H       -0.6999676542    1.5476023504    0.2094043134
H       -5.8047047895   -1.7748191665    3.8781128825
H       -4.1739691637   -3.7492068019    4.4489990254
16   

C        0.5623834749    0.9396924574    1.8048644866
C        0.6651114470    0.1107842168    2.8983310088
C       -0.6577889122    1.0409995639    1.1749204892
C       -4.7429299565   -1.8252828983    3.6139474256
C       -3.8859661649   -2.7515796772    4.1132379195
C       -1.5667023552   -0.4218526282    2.6951361807
C       -2.7608623401   -1.1667580728    3.1327682215
N       -0.3865865611   -0.5690892762    3.3381515153
N       -1.7105248848    0.3603973664    1.6127078023
N       -4.0153890222   -0.8292402137    3.0061071347
O       -2.6241829663   -2.3553350838    3.8255952122
H        1.4185252441    1.4943971727    1.4483930162
H        1.6155072961    0.0089939614    3.4098583031
H       -0.7626649402    1.6836935396    0.3082973383
H       -5.8235929499   -1.8629686115    3.6862125952
H       -4.1629719529   -3.6508912113    4.6497242921
16   

C        0.5524580577    0.9576470135    1.8121454555
C        0.6801924112    0.0637256464    2.8502863985
C       -0.6891516439    1.1199549444    1.2395825014
C       -4.7451377563   -1.8743466960    3.5345353242
C       -3.8935371324   -2.6793496582    4.2185529101
C       -1.5674453144   -0.4204457477    2.7012357553
C       -2.7603092496   -1.1609466298    3.1439190763
N       -0.3673422550   -0.6221826757    3.2906621561
N       -1.7378423245    0.4339711890    1.6783088960
N       -4.0140596502   -0.9205851970    2.8664543822
O       -2.6314751781   -2.2473443442    3.9898902584
H        1.4054893479    1.5165393379    1.4547620210
H        1.6472072309   -0.0850989818    3.3172010219
H       -0.8147181445    1.8163989124    0.4184331864
H       -5.8247740664   -1.9672005666    3.5192594181
H       -4.1743683411   -3.5209050714    4.8400246351
16   

C        0.5490481106    0.9715129845    1.8276902433
C        0.6933539316    0.0150050420    2.8061478899
C       -0.7084557655    1.1943942848    1.3131709851
C       -4.7365160520   -1.9344111807    3.4596920204
C       -3.9122961219   -2.5985522088    4.3085191384
C       -1.5672838730   -0.4194497466    2.7059281953
C       -2.7615353951   -1.1545346662    3.1522033422
N       -0.3528689477   -0.6752278008    3.2428788658
N       -1.7560094260    0.5048648835    1.7489051560
N       -3.9947168180   -1.0285273564    2.7389717164
O       -2.6571336003   -2.1235782510    4.1335106115
H        1.4012457141    1.5331042352    1.4725563203
H        1.6725742735   -0.1803404344    3.2283365487
H       -0.8478368934    1.9427733745    0.5414268053
H       -5.8045159750   -2.0925011501    3.3656120770
H       -4.2069768018   -3.3739430953    5.0051117419
16   

C        0.5479140164    0.9806541703    1.8428950708
C        0.7019444250   -0.0365443732    2.7565428376
C       -0.7207755871    1.2637267027    1.3889369931
C       -4.7180210782   -2.0062214039    3.3915217212
C       -3.9401947023   -2.5117074418    4.3817796805
C       -1.5694809895   -0.4189194107    2.7038512655
C       -2.7662633005   -1.1489628187    3.1532201611
N       -0.3452547572   -0.7293527963    3.1868105834
N       -1.7694755096    0.5722733125    1.8189647141
N       -3.9608223167   -1.1526407893    2.6243712614
O       -2.6995949427   -1.9866639729    4.2515490699
H        1.4010385349    1.5436250487    1.4921958510
H        1.6897288026   -0.2783047021    3.1321877907
H       -0.8682436642    2.0623463363    0.6709209277
H       -5.7641844388   -2.2390444654    3.2308819110
H       -4.2564023027   -3.2136963363    5.1437069937
16   

C        0.6387285424    0.8369685405    1.8289044373
C       -0.3408349241    1.4524153162    2.5739070602
C        0.4989011525   -0.5034792999    1.5467786437
C       -3.9498818463   -2.8844850574    3.8682212733
C       -4.6558450643   -1.7254786194    3.8643628387
C       -1.4726472766   -0.5480637769    2.7248364727
C       -2.6255460079   -1.3481765063    3.1755755822
N       -1.3906140288    0.7699795360    3.0143553926
N       -0.5514015026   -1.1873322576    1.9853474193
N       -2.6694849395   -2.6259683864    3.4385339312
O       -3.8382032700   -0.7365203184    3.4339318074
H        1.4941176209    1.3926849593    1.4722007258
H       -0.2577332960    2.5080743267    2.8061847390
H        1.2548650178   -1.0095863272    0.9573174515
H       -4.3321179036   -3.8541097535    4.1652042531
H       -5.6927194823   -1.6110421055    4.1560936550
16   

C        0.6291904258    0.8432513677    1.8202976948
C       -0.3059354877    1.4278013766    2.6432928875
C        0.4505685425   -0.4741945019    1.4618418623
C       -3.9277809540   -2.8648364838    3.9618423074
C       -4.6829287016   -1.7582475851    3.7437101074
C       -1.4661305941   -0.5597737231    2.7231230822
C       -2.6216733901   -1.3634341186    3.1721693703
N       -1.3491736780    0.7369871217    3.0862068312
N       -0.5936414797   -1.1661988809    1.9027220242
N       -2.6276872697   -2.5930315791    3.6050361616
O       -3.8768754064   -0.7902360204    3.2485181315
H        1.4795954956    1.4054398360    1.4618192115
H       -0.1927671976    2.4655739355    2.9356867194
H        1.1701862996   -0.9549662888    0.8090760653
H       -4.2897645968   -3.8065788994    4.3575340209
H       -5.7451508693   -1.6650689283    3.9342781498
16   

C        0.6220955709    0.8579813684    1.8183250915
C       -0.2565640865    1.4045662618    2.7253527147
C        0.3958440080   -0.4293650356    1.3851632419
C       -3.9083708636   -2.8208494433    4.0776053499
C       -4.6917290528   -1.8007422181    3.6432881764
C       -1.4537984945   -0.5619593934    2.7370103695
C       -2.6089975001   -1.3690837869    3.1965672664
N       -1.2909173352    0.7056831753    3.1763136249
N       -0.6398043041   -1.1291633807    1.8345128499
N       -2.5951895841   -2.5240685446    3.7956881570
O       -3.8899203589   -0.8638086935    3.0853460196
H        1.4653720115    1.4264357570    1.4529523878
H       -0.1057650779    2.4185557212    3.0779949659
H        1.0701369088   -0.8795039207    0.6655781487
H       -4.2603494684   -3.7193759992    4.5708117790
H       -5.7700380703   -1.7450886833    3.7297284277
16   

C        0.6093497873    0.8595986661    1.8087594848
C       -0.1966116742    1.3679641162    2.8015882131
C        0.3156177097   -0.3878234810    1.3048528047
C       -3.9107442002   -2.7632072016    4.1851139609
C       -4.7009432524   -1.8718594765    3.5336403967
C       -1.4582469152   -0.5563153344    2.7487684390
C       -2.6115783175   -1.3634286152    3.2290920036
N       -1.2267235683    0.6707997389    3.2647136145
N       -0.7156806128   -1.0860516851    1.7670537892
N       -2.5938726319   -2.4188595949    3.9857099661
O       -3.8989705998   -0.9695011334    2.9215368045
H        1.4489819411    1.4266119562    1.4328991964
H        0.0087226442    2.3498989477    3.2125786948
H        0.9325565032   -0.8074019477    0.5184405887
H       -4.2610793158   -3.6057508338    4.7698229763
H       -5.7838334464   -1.8803035606    3.5090417819
16   

C        0.6067748330    0.8532069270    1.8029941797
C       -0.1030396226    1.3290784826    2.8818837999
C        0.2133473831   -0.3392850477    1.2374109011
C       -3.9162741553   -2.6687278409    4.3136649370
C       -4.6906457360   -1.9550884746    3.4565169978
C       -1.4743504222   -0.5152003559    2.7788121827
C       -2.6236319271   -1.3123750311    3.2916249820
N       -1.1385598542    0.6542793764    3.3655477823
N       -0.8227560545   -1.0161177907    1.7205709239
N       -2.6128503108   -2.2452491045    4.1933172265
O       -3.8919226339   -1.0850126552    2.7953370912
H        1.4504952523    1.4023268277    1.4100982360
H        0.1839291646    2.2664045720    3.3448502595
H        0.7553466361   -0.7331079994    0.3852084764
H       -4.2682949677   -3.4449534659    4.9830363019
H       -5.7603835179   -2.0629657154    3.3247681234
16   

C        0.6080918210    0.8434697952    1.7979051728
C       -0.0053584288    1.2833662319    2.9489278481
C        0.1045611364   -0.2780719292    1.1769961292
C       -3.9503980053   -2.5419396546    4.4111971257
C       -4.6735093849   -2.0361032728    3.3793105670
C       -1.5082699164   -0.4512970737    2.7972532127
C       -2.6578079717   -1.2296652904    3.3307606956
N       -1.0561257604    0.6433921919    3.4465677493
N       -0.9461702170   -0.9213656854    1.6742781813
N       -2.6771100467   -2.0238054795    4.3582639729
O       -3.8735048874   -1.2008369703    2.6761095266
H        1.4640442994    1.3646552604    1.3935829893
H        0.3717778398    2.1628535462    3.4583780343
H        0.5716696562   -0.6438118798    0.2697179037
H       -4.3160901259   -3.2427322071    5.1525864452
H       -5.7091380620   -2.2624266512    3.1566550834
16   

C        0.6142320087    0.8340281888    1.7941070154
C        0.0740885008    1.2197154851    2.9997736931
C        0.0274322421   -0.2144079393    1.1212253866
C       -3.9972027217   -2.4274899100    4.4664132383
C       -4.6381610479   -2.1271498169    3.3080046368
C       -1.5277878163   -0.4203437647    2.7957815768
C       -2.6806488808   -1.1826799398    3.3308197095
N       -0.9870910210    0.5987773397    3.4988790912
N       -1.0335638144   -0.8391441317    1.6203392914
N       -2.7588060165   -1.8288773053    4.4575632802
O       -3.8218649930   -1.3409586858    2.5680319247
H        1.4786347285    1.3399203378    1.3883510531
H        0.5185638474    2.0399773046    3.5519337077
H        0.4369448389   -0.5378473818    0.1710732445
H       -4.3946341941   -3.0432620538    5.2647636675
H       -5.6290841884   -2.4600776186    3.0242062711
16   

C        0.6078625108    0.8419505155    1.7944522732
C        0.1303490146    1.1598355157    3.0451299752
C       -0.0417135202   -0.1376849409    1.0776461489
C       -4.0519365463   -2.3226847367    4.5103540344
C       -4.5952618765   -2.2175448129    3.2711369696
C       -1.5379093742   -0.4096308674    2.7990505095
C       -2.6924606036   -1.1631347926    3.3296527631
N       -0.9309988781    0.5401697770    3.5448580091
N       -1.1030646304   -0.7609637122    1.5777469089
N       -2.8478532445   -1.6583059102    4.5254558056
O       -3.7513528341   -1.4901401474    2.5028035209
H        1.4724030019    1.3469048958    1.3878375277
H        0.6248621126    1.9248975236    3.6328423511
H        0.3178201396   -0.4076248206    0.0912573898
H       -4.4928067636   -2.8489316474    5.3489117243
H       -5.5388158121   -2.6429808935    2.9517453369
16   

C        0.6097844769    0.8530767881    1.7843769565
C        0.1882086630    1.0971737167    3.0709160139
C       -0.0903131786   -0.0622657682    1.0315719566
C       -4.1019796927   -2.2345022211    4.5170245089
C       -4.5324478462   -2.3170688571    3.2330876727
C       -1.5265763238   -0.4181013507    2.7906759977
C       -2.6826881491   -1.1680852169    3.3132557480
N       -0.8674961878    0.4681798301    3.5704621631
N       -1.1464673258   -0.6942013396    1.5317398107
N       -2.9323388767   -1.5121183562    4.5473881972
O       -3.6505807779   -1.6523162434    2.4510655102
H        1.4697435392    1.3656346450    1.3775744355
H        0.7225155664    1.8110826215    3.6874557058
H        0.2240820772   -0.2734368437    0.0158694408
H       -4.5972554529   -2.6701144139    5.3769174274
H       -5.4253735000   -2.8270231737    2.8926135740
16   

C        0.6035092740    0.8600802306    1.7795687795
C        0.2377597670    1.0293170984    3.0947053120
C       -0.1437684777    0.0067035095    1.0001264033
C       -4.1593314214   -2.1558463669    4.5180608555
C       -4.4684536743   -2.4225251358    3.2246525730
C       -1.5155532864   -0.4385121097    2.7915777259
C       -2.6734916508   -1.1861795937    3.3086164109
N       -0.8090287289    0.3873823199    3.5962649914
N       -1.1915707643   -0.6373323437    1.5023516696
N       -3.0253022578   -1.3791905543    4.5518199329
O       -3.5440767000   -1.8220589959    2.4399827714
H        1.4562129059    1.3831764235    1.3709153548
H        0.8091290218    1.6942215257    3.7324423048
H        0.1253648515   -0.1443451820   -0.0390261492
H       -4.7144824601   -2.5003618621    5.3826883645
H       -5.3081062161   -3.0133842154    2.8794652526
16   

C        0.5898082214    0.8762614356    1.7727203838
C        0.2840121308    0.9680418032    3.1105954763
C       -0.2076047218    0.0878748344    0.9748307211
C       -4.2211154591   -2.0703376243    4.5082959346
C       -4.4054236249   -2.5124789588    3.2395693441
C       -1.5081915876   -0.4497870830    2.7943051359
C       -2.6678672084   -1.1944533766    3.3104140411
N       -0.7525630833    0.3131525290    3.6165125391
N       -1.2458837770   -0.5681688463    1.4812459901
N       -3.1237759062   -1.2424826400    4.5340625255
O       -3.4373308341   -1.9737801334    2.4629310262
H        1.4342988942    1.4097739601    1.3604946259
H        0.8948017310    1.5817907315    3.7629128525
H        0.0129490859   -0.0005467904   -0.0828191815
H       -4.8379544852   -2.3277225552    5.3613639261
H       -5.1902336922   -3.1801750731    2.9055973502
