49

C      0.40943   -1.28901    0.05700
C      0.67911   -1.85447    1.30986
C     -0.40559   -3.91391    0.65851
C     -5.49452   -5.34851    0.28761
C     -4.95010   -6.56773    0.74213
C     -0.27169   -2.04469   -0.89669
C     -0.67257   -3.35094   -0.58809
C      0.27851   -3.16361    1.62824
C     -3.60730   -6.81751    0.34054
C     -3.56618   -4.79339   -0.76114
C     -5.75461   -7.49472    1.57830
C     -0.68962   -1.68106   -2.30602
C     -1.44029   -3.95689   -1.75155
C     -1.00392   -3.05960   -2.94366
C      0.55466   -3.74443    2.99699
C     -1.95398   -3.02608   -4.13870
C     -2.15359   -7.85753    2.10910
C     -7.96223   -8.24672    2.60664
C     -2.81008   -8.03752    0.72696
C     -7.23625   -7.17513    1.79405
N     -4.84172   -4.45653   -0.44449
N     -2.93815   -5.93097   -0.40311
N     -2.88956   -3.89808   -1.52624
O     -5.26964   -8.49901    2.09766
H      0.73841   -0.27589   -0.16464
H      1.21779   -1.27056    2.05360
H     -0.72514   -4.93040    0.87308
H     -6.51627   -5.07476    0.53959
H     -1.58158   -1.03780   -2.29525
H      0.08258   -1.13759   -2.86022
H     -1.19598   -5.00577   -1.91990
H     -0.04600   -3.47705   -3.27562
H     -0.27170   -3.53257    3.68656
H      0.67154   -4.83142    2.95301
H      1.46393   -3.32301    3.43622
H     -2.91842   -2.57359   -3.88588
H     -2.15260   -4.03472   -4.51548
H     -1.51961   -2.43914   -4.95518
H     -1.50657   -6.97389    2.12084
H     -1.54095   -8.73182    2.35094
H     -2.91287   -7.75003    2.88711
H     -7.91706   -9.21753    2.10616
H     -7.50652   -8.36808    3.59245
H     -9.01370   -7.97254    2.73948
H     -3.44728   -8.92167    0.74810
H     -2.03453   -8.16513   -0.03331
H     -7.31245   -6.20317    2.29864
H     -7.71692   -7.04128    0.81700
H     -3.35009   -2.99843   -1.59758
