29   

C        1.8046671833    4.7068132532   -3.2803097497
C        1.9094780225    5.2525542551   -1.9991270766
C        1.1975916977    3.4615205485   -3.4548250629
C        1.4218091310    4.5473492974   -0.8928424842
C        0.7104527144    2.7571246125   -2.3481630589
C        0.8485549361    3.2749993255   -1.0405837177
C        0.2759675730    2.6257793909    0.1917838203
C       -0.6919775680   -1.5255778872   -0.0006721536
C        0.2354157249   -0.8698246271   -1.0322972211
C       -1.6710479618   -0.4827870415    0.5524454476
C        0.9696887151    0.3191963997   -0.4045162475
C       -0.9172279357    0.7123374468    1.1427660391
N       -0.0019222566    1.2700659541    0.1449486554
O       -0.0867700224    3.3085546381    1.1439151817
H        2.1781062035    5.2559231734   -4.1374938764
H        2.3609312755    6.2284681245   -1.8600773259
H        1.0887406941    3.0478415014   -4.4510977466
H        1.4935506700    4.9960349303    0.0931628310
H        0.1968213764    1.8189234365   -2.5206430814
H       -0.0945032644   -1.9376867266    0.8197537612
H       -1.2453041914   -2.3492057461   -0.4630711412
H       -0.3565048355   -0.5246436239   -1.8861057585
H        0.9616270950   -1.6025304961   -1.3976525145
H       -2.3062748255   -0.9340618225    1.3210648188
H       -2.3190934758   -0.1311167600   -0.2569075337
H        1.6384971123    0.7717177993   -1.1403755643
H        1.6067893723   -0.0438998422    0.4091916846
H       -1.6478097186    1.4605686767    1.4694424426
H       -0.3474553740    0.3960563590    2.0231283328
29   

C        1.8779938547    4.6478262161   -3.2838015015
C        2.0455612739    5.1571950951   -1.9934673102
C        1.1329316777    3.4821421126   -3.4783051562
C        1.4788441244    4.4951837114   -0.8980696840
C        0.5673199452    2.8213162738   -2.3822399281
C        0.7577989427    3.3052174171   -1.0702888146
C        0.1226482582    2.6820841782    0.1431417382
C       -0.6061416334   -1.5052751370   -0.0003968702
C        0.2652482964   -0.8014796602   -1.0492533274
C       -1.6090288280   -0.5086132019    0.5937192003
C        0.9714255420    0.4083798837   -0.4293901162
C       -0.8857032707    0.7065274077    1.1814763470
N       -0.0206725747    1.3103150615    0.1654569471
O       -0.3388707019    3.3866232178    1.0338811211
H        2.3130711553    5.1638065969   -4.1324653876
H        2.6075964980    6.0715065332   -1.8395148356
H        0.9819838694    3.0968483488   -4.4804583562
H        1.5978726472    4.9103887216    0.0978850297
H       -0.0394280467    1.9396085329   -2.5549226443
H        0.0298681432   -1.9036651103    0.7974991279
H       -1.1400765236   -2.3441982990   -0.4580931292
H       -0.3640152498   -0.4695494431   -1.8813140305
H        1.0082345520   -1.5009192886   -1.4448451451
H       -2.2057370018   -0.9945060487    1.3720246799
H       -2.2918064148   -0.1712614220   -0.1929415058
H        1.5966696400    0.8933831319   -1.1822777962
H        1.6495240494    0.0623920058    0.3581355355
H       -1.6365293130    1.4185216159    1.5412114200
H       -0.2794401783    0.4007012772    2.0407411196
29   

C        1.9167382435    4.5733827153   -3.2657935315
C        2.1252277237    5.0365621913   -1.9633841816
C        1.0657296499    3.4875020036   -3.4896245366
C        1.4897237337    4.4093908162   -0.8852766184
C        0.4316759400    2.8614595545   -2.4107466435
C        0.6528598945    3.3047590175   -1.0913114293
C       -0.0369390100    2.6934606582    0.0982890449
C       -0.5403578722   -1.5007838966    0.0024133811
C        0.2879047395   -0.7544156660   -1.0524396446
C       -1.5560762365   -0.5437975552    0.6393520585
C        0.9741251907    0.4646850890   -0.4284116970
C       -0.8520938020    0.6790742444    1.2350144046
N       -0.0318494650    1.3230502510    0.2065025505
O       -0.6084045794    3.4034994491    0.9171195842
H        2.4054875798    5.0626224222   -4.1009849936
H        2.7733003156    5.8877467786   -1.7871893383
H        0.8892434009    3.1365083167   -4.5001761154
H        1.6409093917    4.7846575191    0.1219157694
H       -0.2455635699    2.0348303893   -2.5954984338
H        0.1243750480   -1.8966884658    0.7777638949
H       -1.0619041239   -2.3452552309   -0.4593770090
H       -0.3688372080   -0.4257471807   -1.8643399913
H        1.0408028869   -1.4256613297   -1.4770741493
H       -2.1212180261   -1.0612817930    1.4208139549
H       -2.2660554043   -0.2100079368   -0.1245349967
H        1.5648753402    0.9794195240   -1.1893364578
H        1.6823968649    0.1272672386    0.3358417455
H       -1.6126542456    1.3599165930    1.6321428777
H       -0.2143465512    0.3733600970    2.0710465453
29   

C        1.9532676091    4.5064198457   -3.2911905356
C        2.2163652514    4.9182186317   -1.9811120262
C        1.0031242507    3.5090598902   -3.5294092558
C        1.5329467946    4.3300876313   -0.9102712197
C        0.3217729234    2.9220346283   -2.4574399510
C        0.5885659209    3.3207272298   -1.1339230950
C       -0.1414099641    2.7241810341    0.0409898917
C       -0.4750987138   -1.4453314103    0.0312797482
C        0.3250297361   -0.6781584157   -1.0309456015
C       -1.4862436979   -0.5071560406    0.7039224899
C        1.0099335263    0.5426166546   -0.4086790194
C       -0.7805793149    0.7149947565    1.2998011641
N        0.0032020765    1.3776856913    0.2551823682
O       -0.8213335638    3.4307385819    0.7746338562
H        2.4790304501    4.9657928250   -4.1208545026
H        2.9449266979    5.6989989571   -1.7936345534
H        0.7886667825    3.1957520780   -4.5449976715
H        1.7287256432    4.6626129125    0.1039913294
H       -0.4247531440    2.1585272398   -2.6475316686
H        0.2094420054   -1.8454838981    0.7868884467
H       -0.9984591179   -2.2884629189   -0.4309530985
H       -0.3509928320   -0.3476546298   -1.8261774578
H        1.0765266105   -1.3362494140   -1.4780609885
H       -2.0282809942   -1.0410233541    1.4906630420
H       -2.2168735608   -0.1705780897   -0.0391116333
H        1.5750095405    1.0727662825   -1.1789043616
H        1.7401195600    0.2090308628    0.3363047465
H       -1.5354388197    1.3809531994    1.7311173116
H       -0.1160183739    0.4047461605    2.1128235714
29   

C        1.9892255945    4.4309651160   -3.3297985853
C        2.2930983656    4.7753560219   -2.0090725225
C        0.9575654571    3.5248655469   -3.5926234770
C        1.5668771688    4.2125830212   -0.9528467427
C        0.2340697534    2.9632012619   -2.5347530222
C        0.5360635878    3.2990662160   -1.2029874935
C       -0.2392574638    2.7103111832   -0.0512225979
C       -0.4118747364   -1.4090544488    0.0436826442
C        0.3946292743   -0.6291350796   -1.0051675901
C       -1.4336551365   -0.4831176315    0.7188673707
C        1.0638606855    0.5939948526   -0.3699016574
C       -0.7384543254    0.7390995086    1.3273983516
N        0.0382313131    1.4124189910    0.2849942795
O       -1.0525659453    3.3871766743    0.5645070708
H        2.5477998943    4.8711009787   -4.1483807835
H        3.0871600475    5.4840607169   -1.8022432167
H        0.7133843128    3.2624125551   -4.6158928417
H        1.7971398210    4.4910692851    0.0701781583
H       -0.5724456329    2.2680048243   -2.7415062488
H        0.2686109500   -1.8130311046    0.8008176629
H       -0.9271095169   -2.2505138805   -0.4306312684
H       -0.2755706343   -0.2983021296   -1.8053332889
H        1.1551914697   -1.2788731991   -1.4491275707
H       -1.9757512295   -1.0272112427    1.4984780243
H       -2.1631460259   -0.1454840290   -0.0249429698
H        1.6284624436    1.1342543625   -1.1340810948
H        1.7910161591    0.2660020952    0.3804128426
H       -1.4947299132    1.3968109169    1.7685801396
H       -0.0701471997    0.4268306748    2.1364723651
29   

C        1.9597925253    4.4102397808   -3.3030154313
C        2.3244954707    4.6304035586   -1.9713061501
C        0.8475509352    3.6160896965   -3.5969094748
C        1.5784828776    4.0548856240   -0.9359369287
C        0.1048089236    3.0418282375   -2.5593030058
C        0.4674564300    3.2511289130   -1.2180446058
C       -0.3382812286    2.6448241007   -0.0958331504
C       -0.3290262558   -1.4195523824    0.0978538743
C        0.4854076404   -0.6210894322   -0.9315004592
C       -1.3826354536   -0.5166790746    0.7561631199
C        1.1142738340    0.6164805548   -0.2818315228
C       -0.7228589887    0.7185149930    1.3777594766
N        0.0518520592    1.4085301857    0.3454717757
O       -1.2834781036    3.2495554759    0.3933925630
H        2.5335796871    4.8602852469   -4.1055319331
H        3.1814669619    5.2529329025   -1.7397173783
H        0.5556147597    3.4506003928   -4.6279174768
H        1.8581440367    4.2372952002    0.0962023076
H       -0.7645982448    2.4350212795   -2.7887216638
H        0.3432421064   -1.8133214362    0.8675126869
H       -0.8179974278   -2.2690395042   -0.3898215348
H       -0.1735014671   -0.3032134598   -1.7463893318
H        1.2688167251   -1.2542644853   -1.3592981092
H       -1.9267059917   -1.0734426118    1.5253511353
H       -2.1060465902   -0.1927872736    0.0002837436
H        1.6808835958    1.1698148915   -1.0354431958
H        1.8321246468    0.3069750587    0.4850201946
H       -1.4954277526    1.3612930845    1.8127655024
H       -0.0581433552    0.4184858198    2.1943464955
29   

C        2.0138153151    4.4399794813   -3.3395445737
C        2.4313304594    4.4845717919   -2.0061263947
C        0.8143806823    3.8034475236   -3.6707068094
C        1.6517733947    3.8891113771   -1.0073823749
C        0.0386818151    3.2090154337   -2.6692228048
C        0.4557238615    3.2344389562   -1.3281257146
C       -0.4009551480    2.6217430880   -0.2491176929
C       -0.2784386878   -1.3978459118    0.1728378696
C        0.5543169262   -0.6284947273   -0.8638820054
C       -1.3707832513   -0.4890129099    0.7548395025
C        1.1372691394    0.6513647373   -0.2533401119
C       -0.7541470605    0.7850623086    1.3403014586
N        0.0389815591    1.4471841895    0.3035105214
O       -1.4446705255    3.1591425259    0.0984879737
H        2.6135197371    4.9057552225   -4.1136242321
H        3.3554054708    4.9876915570   -1.7443627134
H        0.4796479285    3.7771062151   -4.7016541985
H        1.9736647455    3.9388737342    0.0272835153
H       -0.9003456707    2.7298102303   -2.9254911063
H        0.3750202617   -1.7432607146    0.9809051736
H       -0.7343692418   -2.2778536627   -0.2922372372
H       -0.0838517835   -0.3616101011   -1.7130101371
H        1.3633709061   -1.2634662248   -1.2378476271
H       -1.9290853108   -1.0218715779    1.5307171570
H       -2.0750029551   -0.2136231162   -0.0375821000
H        1.7107270783    1.1802413978   -1.0189456405
H        1.8391789759    0.3948243557    0.5470239212
H       -1.5500265962    1.4314705040    1.7251654342
H       -0.1092579165    0.5339049570    2.1886447155
29   

C        2.0043467487    4.4814719144   -3.3447017508
C        2.4608965008    4.3644130852   -2.0289513293
C        0.7518751089    3.9687583975   -3.6923218822
C        1.6678471408    3.7296541807   -1.0656286703
C       -0.0367618509    3.3347103958   -2.7259448998
C        0.4186642098    3.1916231022   -1.4044098548
C       -0.4615813800    2.5462008064   -0.3670669440
C       -0.2498929144   -1.3958077590    0.2700216332
C        0.5917334440   -0.6575530511   -0.7816937511
C       -1.3544577375   -0.4741804536    0.8065921705
C        1.1565057345    0.6499347857   -0.2128883541
C       -0.7502808094    0.8231463106    1.3529246325
N        0.0449420713    1.4570684856    0.3002046945
O       -1.5786805362    2.9917400966   -0.1352955979
H        2.6146324089    4.9776093840   -4.0911448254
H        3.4261588554    4.7735536982   -1.7525107302
H        0.3857294464    4.0694082199   -4.7079013177
H        2.0222812180    3.6588512828   -0.0428929330
H       -1.0173403239    2.9545425096   -2.9933494070
H        0.3950349266   -1.7093103718    1.0976272692
H       -0.6948858503   -2.2939154283   -0.1704784472
H       -0.0369659542   -0.4276329962   -1.6486063278
H        1.4104766085   -1.2991282314   -1.1217684501
H       -1.9185713895   -0.9827027259    1.5944444372
H       -2.0512997638   -0.2310642981   -0.0028898467
H        1.7300435942    1.1519673106   -0.9956650268
H        1.8530830961    0.4315945683    0.6032968248
H       -1.5510685014    1.4791572796    1.7107821371
H       -0.1099708224    0.6049439993    2.2137176483
29   

C        1.9523738329    4.5609823412   -3.2968958056
C        2.4480255708    4.2842528448   -2.0203741165
C        0.6638960345    4.1482674881   -3.6433516279
C        1.6581560684    3.5898808287   -1.0962458673
C       -0.1209377251    3.4542265114   -2.7160851601
C        0.3702120281    3.1489363833   -1.4342014986
C       -0.5136245038    2.4340216378   -0.4489236937
C       -0.2070484509   -1.4248002124    0.4095452830
C        0.6232909606   -0.7225921207   -0.6741171225
C       -1.3228397678   -0.4942166827    0.9043998189
C        1.1700349577    0.6177541026   -0.1675099178
C       -0.7338082365    0.8332441054    1.3928193360
N        0.0519997049    1.4359654201    0.3146187933
O       -1.6802765070    2.7786485459   -0.3016030416
H        2.5604519041    5.1030102693   -4.0125870592
H        3.4420401068    4.6163277581   -1.7425468843
H        0.2669441863    4.3717073874   -4.6272735407
H        2.0481451729    3.4030137978   -0.1015313732
H       -1.1280753366    3.1507319139   -2.9837262294
H        0.4421389377   -1.6929395496    1.2495969513
H       -0.6403929156   -2.3470156998    0.0089778850
H       -0.0095083660   -0.5411787253   -1.5495547379
H        1.4507438055   -1.3669585571   -0.9868235194
H       -1.8813128756   -0.9743886778    1.7136906513
H       -2.0222184973   -0.2957224255    0.0848620023
H        1.7268183700    1.0876140823   -0.9812197250
H        1.8764379000    0.4483574412    0.6518736687
H       -1.5415510359    1.4953426875    1.7231360321
H       -0.0905061055    0.6600253613    2.2615163645
29   

C        1.9578309708    4.6528717708   -3.3051585563
C        2.4835719064    4.2304403781   -2.0825231240
C        0.6400302398    4.3342138455   -3.6366193125
C        1.6946936394    3.4849490725   -1.1979881731
C       -0.1434271363    3.5889432231   -2.7490977350
C        0.3730958681    3.1380447618   -1.5192833069
C       -0.5151527882    2.3495080386   -0.5965922448
C       -0.1958501716   -1.4181874731    0.4912524793
C        0.6389152777   -0.7725469080   -0.6224150234
C       -1.3094822054   -0.4600054121    0.9337739648
C        1.1885419735    0.5896845991   -0.1820112095
C       -0.7167821599    0.8879885419    1.3593305296
N        0.0777577817    1.4404006854    0.2603439713
O       -1.7120950673    2.6057075708   -0.5283130215
H        2.5658693863    5.2334929598   -3.9899397574
H        3.5017479250    4.4890712501   -1.8143130849
H        0.2196480383    4.6676612061   -4.5787984542
H        2.1176979842    3.1956278339   -0.2424255213
H       -1.1706599833    3.3548696239   -3.0107342174
H        0.4495650066   -1.6465852167    1.3457677101
H       -0.6310065922   -2.3574161116    0.1345015467
H        0.0085073668   -0.6327267520   -1.5071955222
H        1.4651742157   -1.4336454729   -0.9016612753
H       -1.8743322861   -0.8975826378    1.7624790335
H       -2.0039732574   -0.2998246831    0.1016931901
H        1.7401638638    1.0143272466   -1.0235570843
H        1.8982231382    0.4596073058    0.6417479049
H       -1.5233643670    1.5695049136    1.6510746186
H       -0.0800117626    0.7546441622    2.2397419141
29   

C        1.9381035129    4.7663062352   -3.2795509074
C        2.4991344588    4.2037023206   -2.1324672753
C        0.5952301552    4.5321296148   -3.5740765854
C        1.7207565962    3.4034737907   -1.2870287281
C       -0.1774012587    3.7321095219   -2.7259391979
C        0.3695258337    3.1418234348   -1.5677926079
C       -0.5160935644    2.2740913200   -0.7136222254
C       -0.2139411237   -1.4025105796    0.6070264696
C        0.6335981502   -0.8211233903   -0.5306989932
C       -1.3294949839   -0.4181239974    0.9792335632
C        1.1835865463    0.5613569874   -0.1601616228
C       -0.7379661239    0.9501667260    1.3385836270
N        0.0788736466    1.4458954107    0.2283664508
O       -1.7304501275    2.4458330600   -0.7221600655
H        2.5388053170    5.3880768003   -3.9340027519
H        3.5385694197    4.3955145078   -1.8910396917
H        0.1471384441    4.9705586384   -4.4587289547
H        2.1843248585    3.0176516129   -0.3868632469
H       -1.2216806870    3.5609496578   -2.9684862469
H        0.4206302951   -1.5838201183    1.4806953258
H       -0.6473679610   -2.3591708956    0.2975642563
H        0.0121971026   -0.7279410385   -1.4279336751
H        1.4603608801   -1.4985974467   -0.7658170961
H       -1.9084887384   -0.8075424653    1.8220214738
H       -2.0110467636   -0.3029582848    0.1291617198
H        1.7361119949    0.9360133789   -1.0247680956
H        1.8907410519    0.4741720541    0.6714244849
H       -1.5472333025    1.6492391126    1.5766253151
H       -0.1184591496    0.8637344573    2.2369311456
29   

C        1.8844521434    4.6142658722   -3.5346285866
C        2.1088238514    3.2656153070   -3.2593836026
C        0.8793826004    5.2957364395   -2.8506337612
C        1.3349775302    2.6027751988   -2.2986016715
C        0.1094147071    4.6286654114   -1.8924587262
C        0.3195241318    3.2657482849   -1.5883655174
C       -0.5218261705    2.6362666259   -0.5067391755
C        0.1629614283   -1.4314230586    0.6245196292
C        1.2846085246   -0.5651879177    0.0355186048
C       -1.1945618125   -0.9628056632    0.0852222744
C        1.0245172260    0.9123516265    0.3452765097
C       -1.4061474420    0.5279273649    0.3651796354
N       -0.2880606062    1.3022504040   -0.1759871354
O       -1.5366694297    3.1993276438   -0.1095916725
H        2.4823130498    5.1282385796   -4.2790249503
H        2.8799370159    2.7270147694   -3.7986320059
H        0.6928849128    6.3433835916   -3.0586512626
H        1.5230030562    1.5468050244   -2.1554448173
H       -0.6642966597    5.1810964744   -1.3682443755
H        0.1708610945   -1.3457352993    1.7165698567
H        0.3249239387   -2.4829982923    0.3670957960
H        1.3271357697   -0.7101401613   -1.0488852249
H        2.2479540736   -0.8687878277    0.4568183063
H       -2.0015053249   -1.5424700557    0.5443477720
H       -1.2308352560   -1.1307231353   -0.9959638603
H        1.8350578776    1.5289710970   -0.0507365297
H        1.0318959988    1.0558182626    1.4312907994
H       -2.3527777020    0.8434094444   -0.0873092824
H       -1.4789424171    0.6977360619    1.4450115445
29   

C        1.9445742077    4.5898897114   -3.4597513417
C        2.0411160780    3.2071139864   -3.2985957501
C        1.0118372710    5.3063998381   -2.7101377567
C        1.2120727534    2.5446799675   -2.3850198052
C        0.1862531673    4.6395514931   -1.7989861578
C        0.2739641300    3.2451463553   -1.6088681681
C       -0.6309372608    2.5946446853   -0.5969014588
C        0.2317295512   -1.3936767536    0.6689502645
C        1.3070531007   -0.5093669020    0.0238995457
C       -1.1533628092   -0.9866279586    0.1513225670
C        1.0102416327    0.9685119727    0.2974879338
C       -1.4113147869    0.5021006720    0.4005605484
N       -0.3338071959    1.3029228027   -0.1837076268
O       -1.6971303466    3.1197680549   -0.2948241598
H        2.5841342788    5.1039412552   -4.1685940063
H        2.7538201729    2.6436334894   -3.8902388218
H        0.9232008061    6.3799821491   -2.8333353637
H        1.2918173088    1.4664591104   -2.3182042652
H       -0.5363277271    5.2109636127   -1.2245418594
H        0.2645636507   -1.2749789436    1.7574203377
H        0.4225564047   -2.4465076088    0.4377168404
H        1.3234152848   -0.6853537247   -1.0565279509
H        2.2915464122   -0.7699275983    0.4246471155
H       -1.9284625392   -1.5824864030    0.6433866135
H       -1.2088111678   -1.1828583601   -0.9243286590
H        1.7880560476    1.5925717005   -0.1489126368
H        1.0535315343    1.1471936524    1.3773582687
H       -2.3796327734    0.7695360629   -0.0367363824
H       -1.4664974595    0.6957388520    1.4772899849
29   

C        2.0249184175    4.5798360914   -3.3807445153
C        2.0127471823    3.1844610768   -3.3305084128
C        1.1480505718    5.3071001507   -2.5743008535
C        1.1307516261    2.5196872818   -2.4700307991
C        0.2692220430    4.6376560923   -1.7160769441
C        0.2538436721    3.2319678160   -1.6370129072
C       -0.7185122337    2.5597071338   -0.7068303022
C        0.2717696205   -1.3418594649    0.6905606795
C        1.3121412270   -0.4457249812    0.0056572187
C       -1.1332250808   -0.9750779507    0.1972350328
C        0.9914115248    1.0305632201    0.2596104233
C       -1.4215213764    0.5105704403    0.4312502958
N       -0.3741550529    1.3262138034   -0.1870526446
O       -1.8293373437    3.0427158120   -0.5188937519
H        2.7044365598    5.0964420740   -4.0494206563
H        2.6808888890    2.6151811852   -3.9669115694
H        1.1423279771    6.3905661589   -2.6152860130
H        1.1196483955    1.4357163286   -2.4746253989
H       -0.4167378776    5.2112554693   -1.1005482294
H        0.3260399038   -1.2034631977    1.7758215918
H        0.4811688567   -2.3940489900    0.4728366770
H        1.3070843524   -0.6402537776   -1.0716603559
H        2.3112822458   -0.6782508121    0.3869465409
H       -1.8833764799   -1.5819755602    0.7138384097
H       -1.2067382552   -1.1882726511   -0.8741633320
H        1.7448902759    1.6585083493   -0.2211829125
H        1.0619754801    1.2320124300    1.3339548094
H       -2.4062751358    0.7455126341    0.0125642857
H       -1.4584591721    0.7188447468    1.5058788316
29   

C        2.0569340612    4.5565906578   -3.2882328827
C        1.9738985960    3.1633203184   -3.3476101143
C        1.2169726965    5.2635806064   -2.4250309427
C        1.0575696644    2.4799349764   -2.5394217527
C        0.3035493012    4.5754372905   -1.6189910335
C        0.2217359212    3.1717670371   -1.6503990003
C       -0.7972227827    2.4656673114   -0.7978951973
C        0.3210990965   -1.3297987462    0.7169141682
C        1.3229235020   -0.4142145178    0.0003662433
C       -1.1054299995   -0.9949330319    0.2634593989
C        0.9794550980    1.0565151795    0.2562762683
C       -1.4196995773    0.4845885234    0.5039349919
N       -0.4063923041    1.3168197263   -0.1485420159
O       -1.9475986161    2.8825221122   -0.7341727822
H        2.7622798480    5.0883833878   -3.9170803122
H        2.6130867234    2.6119085961   -4.0279767377
H        1.2653964170    6.3459722954   -2.3839339281
H        0.9875390597    1.4004590563   -2.6161874641
H       -0.3592329279    5.1304431940   -0.9626697673
H        0.4032675436   -1.1870798350    1.7998220409
H        0.5466743898   -2.3779489913    0.4958267452
H        1.2918940193   -0.6130878447   -1.0757250157
H        2.3371079001   -0.6241474486    0.3540622242
H       -1.8268607212   -1.6175078841    0.8018067113
H       -1.2048902976   -1.2117934055   -0.8051943003
H        1.7055202792    1.6945397252   -0.2524380169
H        1.0793539784    1.2678772547    1.3263126059
H       -2.4232403371    0.6946327018    0.1183777085
H       -1.4274034791    0.6953883550    1.5785212128
29   

C        2.0994957335    4.5255924660   -3.2478924179
C        1.9390014733    3.1465538729   -3.4080794062
C        1.3084083339    5.2129715925   -2.3237501618
C        0.9933970629    2.4570590410   -2.6399486660
C        0.3652607045    4.5189878375   -1.5576779972
C        0.2081405226    3.1291489630   -1.6930707911
C       -0.8442122980    2.4050396348   -0.8950834800
C        0.3298161276   -1.2699991224    0.7521491850
C        1.3088866087   -0.3504196349    0.0089812001
C       -1.1109655241   -0.9422781457    0.3384063558
C        0.9655062625    1.1196990957    0.2682028729
C       -1.4251193876    0.5361734083    0.5874714266
N       -0.4330125161    1.3659064177   -0.0996549513
O       -2.0182002801    2.7474517901   -0.9610801753
H        2.8272226525    5.0626362195   -3.8460361948
H        2.5407657491    2.6122864151   -4.1346953782
H        1.4174070325    6.2852490883   -2.2056793733
H        0.8618665594    1.3902903360   -2.7853499910
H       -0.2619582383    5.0581131440   -0.8551615505
H        0.4407385747   -1.1266880813    1.8323593636
H        0.5542869684   -2.3171596759    0.5252318557
H        1.2515057964   -0.5516815320   -1.0656298282
H        2.3329144254   -0.5544823611    0.3368269243
H       -1.8138066806   -1.5684454708    0.8967237289
H       -1.2393700760   -1.1600806446   -0.7270715370
H        1.6735581850    1.7566281525   -0.2671684665
H        1.0948098401    1.3398679297    1.3332388243
H       -2.4426481248    0.7417364385    0.2384508181
H       -1.3979077729    0.7493072201    1.6611412904
29   

C        2.1040299057    4.4906183914   -3.2032185754
C        1.8692301586    3.1391930393   -3.4730689158
C        1.3696528393    5.1373502851   -2.2051799554
C        0.9046654996    2.4360098669   -2.7418843754
C        0.4070433254    4.4303158201   -1.4759641492
C        0.1739387177    3.0681984938   -1.7274923633
C       -0.8892720635    2.3177926723   -0.9654632325
C        0.3478595661   -1.2115872609    0.7975142807
C        1.3042078473   -0.2716436384    0.0490328227
C       -1.1051222394   -0.9004701054    0.4117274732
C        0.9428397091    1.1922061223    0.3205655159
C       -1.4328810216    0.5725765216    0.6764109357
N       -0.4638988048    1.4114957359   -0.0312514368
O       -2.0758277431    2.5435607376   -1.1652351146
H        2.8466046930    5.0384137851   -3.7726885534
H        2.4286080445    2.6376946357   -4.2548258156
H        1.5385964910    6.1887214697   -2.0010268528
H        0.7161851243    1.3915091681   -2.9656455038
H       -0.1743672900    4.9380527851   -0.7135551131
H        0.4743722214   -1.0773127668    1.8771002690
H        0.5829934499   -2.2533609365    0.5568836949
H        1.2361073993   -0.4663094923   -1.0262832054
H        2.3353621360   -0.4627929486    0.3619459890
H       -1.7892075318   -1.5395978019    0.9785136076
H       -1.2503665511   -1.1130134654   -0.6527510419
H        1.6330278307    1.8410726517   -0.2246336156
H        1.0824419777    1.4128774098    1.3841239907
H       -2.4613406783    0.7710641317    0.3569354083
H       -1.3813739608    0.7815772609    1.7499170272
29   

C        2.0565812860    4.4477505585   -3.1558154496
C        1.7403970265    3.1434353257   -3.5480653656
C        1.4014143387    5.0234567177   -2.0632037797
C        0.7716494046    2.4161648933   -2.8466074454
C        0.4343080006    4.2930842365   -1.3634603252
C        0.1149901674    2.9794732965   -1.7455068607
C       -0.9363997098    2.1890865916   -1.0064844303
C        0.3890164090   -1.1655435466    0.8993488079
C        1.3185285451   -0.1964700261    0.1531071330
C       -1.0724954000   -0.9068351866    0.5051654857
C        0.9037597794    1.2564098286    0.4095720102
C       -1.4487452261    0.5570570770    0.7557996441
N       -0.5057580655    1.4164723704    0.0385988742
O       -2.1141715811    2.2558323173   -1.3333152802
H        2.8025838974    5.0141414011   -3.7021532339
H        2.2405224721    2.6973104795   -4.4003613129
H        1.6367837030    6.0380519399   -1.7618650850
H        0.5210005554    1.4085205331   -3.1606354326
H       -0.0814139397    4.7453431698   -0.5230885452
H        0.5046285689   -1.0223656312    1.9789488452
H        0.6611167161   -2.1997442516    0.6649872031
H        1.2667442194   -0.4004348295   -0.9215669383
H        2.3530740369   -0.3493908789    0.4755942530
H       -1.7370911396   -1.5634496906    1.0751009085
H       -1.2067513762   -1.1330456585   -0.5580115870
H        1.5752024699    1.9236547200   -0.1372991304
H        1.0242712321    1.4928352698    1.4720067685
H       -2.4832730223    0.7235291346    0.4375727276
H       -1.4028683774    0.7784847940    1.8270384512
29   

C        2.0601482568    4.4442668868   -3.1559061481
C        1.6623850508    3.2038462120   -3.6645052922
C        1.4910198024    4.9265748962   -1.9733801418
C        0.6971699379    2.4466717833   -2.9903364219
C        0.5272400435    4.1670714702   -1.3006065912
C        0.1238952267    2.9175151631   -1.8028996571
C       -0.9153942193    2.0836017344   -1.0971213059
C        0.4072838542   -1.1131609583    0.9826909197
C        1.3376357176   -0.1363067136    0.2472997486
C       -1.0474693337   -0.8944009881    0.5418955527
C        0.8830457658    1.3124329027    0.4595502355
C       -1.4592686800    0.5660215722    0.7526380777
N       -0.5168262311    1.4292583557    0.0394896749
O       -2.0536089144    1.9973170357   -1.5397928306
H        2.8035950511    5.0336349878   -3.6810117382
H        2.0965746596    2.8305135396   -4.5851932253
H        1.7915056842    5.8915500810   -1.5807798718
H        0.3824350560    1.4895320549   -3.3927989159
H        0.0808159877    4.5467129725   -0.3878393950
H        0.4876161737   -0.9488895665    2.0624313076
H        0.7087427604   -2.1449246601    0.7749072179
H        1.3243670221   -0.3624657573   -0.8242227373
H        2.3647928547   -0.2593725605    0.6042519510
H       -1.7142857742   -1.5536115911    1.1061708395
H       -1.1469938385   -1.1439799668   -0.5199576175
H        1.5564058107    1.9801653184   -0.0839153109
H        0.9650617660    1.5757981953    1.5192655640
H       -2.4890981157    0.7080961070    0.4081525377
H       -1.4433018337    0.8102439684    1.8197572949
29   

C        1.8503516487    4.4527851834   -3.1937219430
C        0.5185806024    4.5715918574   -2.7842487992
C        2.7421233351    3.6781924032   -2.4457674436
C        0.0784906654    3.9138730771   -1.6296048420
C        2.3000247930    3.0205962709   -1.2923562045
C        0.9593508783    3.1269401888   -0.8775414477
C        0.4508480617    2.4438189795    0.3644946993
C       -1.2071177627   -1.1875513384    0.0751554668
C       -0.6639391346   -0.4025049912   -1.1282692027
C       -1.2895155972   -0.2768822727    1.3086654959
C        0.6864548129    0.2438253758   -0.7961110805
C        0.0741973333    0.3585274790    1.5973841451
N        0.5268349420    1.0730192780    0.4028019599
O       -0.0074569862    3.0989401866    1.2923117820
H        2.1921994163    4.9665448816   -4.0853412466
H       -0.1732058513    5.1790307939   -3.3569696889
H        3.7776176536    3.5924049062   -2.7555777817
H       -0.9522730632    4.0186205849   -1.3068264316
H        2.9971514824    2.4293958708   -0.7083676407
H       -0.5416869133   -2.0302551540    0.2901244766
H       -2.1980713223   -1.5905233007   -0.1578082533
H       -1.3786675806    0.3822314855   -1.3984415256
H       -0.5552053245   -1.0684862805   -1.9898148119
H       -1.6240450716   -0.8511255174    2.1780738136
H       -2.0224950465    0.5166688731    1.1271785959
H        1.0294470924    0.8050172046   -1.6684691165
H        1.4339252864   -0.5326787942   -0.6027433662
H       -0.0062983310    1.0222826194    2.4648978851
H        0.8017277937   -0.4171896777    1.8572792760
29   

C        1.8807780426    4.5314567490   -3.1481763533
C        0.5729803340    4.7479517019   -2.7040705636
C        2.7029241163    3.6240323606   -2.4740970735
C        0.0856306654    4.0526737700   -1.5912064941
C        2.2140275530    2.9291619587   -1.3622020849
C        0.8909203757    3.1245347830   -0.9182011646
C        0.3294387656    2.4302020805    0.2927165648
C       -1.1410300204   -1.2576492839    0.1696487993
C       -0.6366156315   -0.4989761977   -1.0662969242
C       -1.2403709949   -0.3054689146    1.3695772491
C        0.6941123656    0.2054583958   -0.7747047203
C        0.1059848258    0.3820029695    1.6189562160
N        0.5249391812    1.0711664282    0.3972186980
O       -0.2412739221    3.0719240164    1.1668087318
H        2.2592976499    5.0739594720   -4.0073575740
H       -0.0633461347    5.4607833671   -3.2164296439
H        3.7223613236    3.4653422990   -2.8074681133
H       -0.9247586026    4.2369162216   -1.2400905464
H        2.8646373078    2.2419721027   -0.8321653673
H       -0.4462851125   -2.0700814482    0.4070024062
H       -2.1207549493   -1.7001730339   -0.0377640159
H       -1.3808117928    0.2507685395   -1.3557397868
H       -0.5145707597   -1.1910735853   -1.9052042998
H       -1.5480201403   -0.8575252629    2.2628953375
H       -2.0000015207    0.4575924242    1.1675174100
H        0.9973365943    0.7492104632   -1.6720334506
H        1.4728941469   -0.5363499178   -0.5690316037
H        0.0156470837    1.0733177882    2.4638124149
H        0.8601392636   -0.3613761223    1.8966922634
29   

C        1.9378943939    4.6027590235   -3.1048425937
C        0.6598734566    4.9011214216   -2.6249220686
C        2.6762806537    3.5715758417   -2.5187590075
C        0.1165237223    4.1620165922   -1.5677071882
C        2.1317698196    2.8330111287   -1.4622490357
C        0.8294446242    3.1020724471   -0.9897505518
C        0.2101696836    2.3915637721    0.1829030555
C       -1.0914399847   -1.3332897576    0.2658539527
C       -0.6326731146   -0.6143526995   -1.0099856645
C       -1.2014867495   -0.3311128566    1.4227318102
C        0.6790747629    0.1446229312   -0.7749562457
C        0.1272737526    0.4070800437    1.6179727752
N        0.5103726477    1.0558023403    0.3624348831
O       -0.4531511262    3.0150452737    1.0041538021
H        2.3601129039    5.1790141972   -3.9205769613
H        0.0902201853    5.7118592514   -3.0650877459
H        3.6766286468    3.3521228045   -2.8747076292
H       -0.8690629922    4.4145435265   -1.1890915269
H        2.7316280562    2.0596856467   -0.9952538596
H       -0.3672315834   -2.1121623227    0.5263219361
H       -2.0599391895   -1.8146133865    0.0952772087
H       -1.4058648279    0.0979753236   -1.3174643265
H       -0.5029575222   -1.3378950214   -1.8207711375
H       -1.4784897592   -0.8508054978    2.3449662084
H       -1.9874985036    0.3986129147    1.1991949676
H        0.9383323353    0.6617318632   -1.7013014799
H        1.4875858223   -0.5616068225   -0.5589162219
H        0.0291270939    1.1336910455    2.4318872449
H        0.9073727964   -0.3003840874    1.9168947352
29   

C        1.9964686077    4.6925088196   -3.0677927673
C        0.7561032420    5.0578089024   -2.5402517708
C        2.6433432492    3.5511734372   -2.5895377818
C        0.1566419748    4.2747674624   -1.5470713490
C        2.0432454863    2.7685158416   -1.5967141259
C        0.7680906892    3.0993706704   -1.0844893482
C        0.0934719097    2.3673443462    0.0458908221
C       -1.0411817602   -1.3818063650    0.3745653104
C       -0.6361249417   -0.7170457149   -0.9468686079
C       -1.1661128863   -0.3205354442    1.4750517335
C        0.6514864672    0.0995112188   -0.7835726714
C        0.1392062735    0.4730488202    1.6028107141
N        0.4849115239    1.0651225231    0.3085310300
O       -0.6524074225    2.9676327670    0.8127209916
H        2.4626069108    5.3025890403   -3.8334732033
H        0.2591172770    5.9546524517   -2.8927099362
H        3.6195136169    3.2810152541   -2.9763862821
H       -0.7980912948    4.5854642907   -1.1339862219
H        2.5930674601    1.9194589783   -1.2077013520
H       -0.2831570373   -2.1180922597    0.6612545692
H       -1.9943088743   -1.9063455259    0.2512694308
H       -1.4413661354   -0.0499957447   -1.2731302281
H       -0.4976207041   -1.4775529880   -1.7216037280
H       -1.4085473997   -0.7963373934    2.4300747064
H       -1.9816790939    0.3674634379    1.2263022184
H        0.8608963425    0.5801385212   -1.7418971598
H        1.4919986241   -0.5650763324   -0.5576504517
H        0.0281580646    1.2420596293    2.3751285043
H        0.9476801964   -0.1891507902    1.9286772540
29   

C        2.0468749334    4.7869747730   -3.0192770192
C        0.8528846297    5.2003636693   -2.4265057217
C        2.5980865432    3.5520484483   -2.6744477490
C        0.2017666280    4.3728056510   -1.5046811491
C        1.9473616396    2.7241420358   -1.7525452673
C        0.7089210699    3.1030459687   -1.1822024210
C       -0.0175743968    2.3397513217   -0.1006412949
C       -0.9907594275   -1.4163009994    0.4928431048
C       -0.6334945386   -0.8193271287   -0.8727532180
C       -1.1449713897   -0.2916554086    1.5234296614
C        0.6228484547    0.0549530203   -0.7841785957
C        0.1300086615    0.5580651792    1.5825822473
N        0.4487764766    1.0798805817    0.2510465536
O       -0.8475904018    2.9070609926    0.6030856239
H        2.5532158373    5.4311859865   -3.7294590574
H        0.4316504073    6.1686928845   -2.6723991188
H        3.5430550424    3.2432441221   -3.1071378767
H       -0.7149445511    4.7284758310   -1.0445037485
H        2.4461780509    1.8078490276   -1.4635706459
H       -0.1987129993   -2.1012361697    0.8128308949
H       -1.9230926864   -1.9855014065    0.4181450782
H       -1.4698537392   -0.2050756501   -1.2235334177
H       -0.4777019000   -1.6196325339   -1.6028629309
H       -1.3587636902   -0.7130113997    2.5102856401
H       -1.9897169164    0.3464671904    1.2412808879
H        0.7845181370    0.4889799335   -1.7737224760
H        1.4950966154   -0.5620399040   -0.5438806344
H       -0.0052698224    1.3722990458    2.3029922041
H        0.9653440784   -0.0498288972    1.9444090631
