29   

C        3.0827049633   -2.8217955551    0.6819696611
C        2.4556811971   -1.6310196938    0.3063188680
C        2.8673855101   -3.3459147261    1.9592518644
C        1.6121728224   -0.9684513102    1.2051897568
C        2.0308519676   -2.6772631929    2.8600257784
C       -0.1577453051   -4.4163158071    5.7023312794
C       -0.0377626145   -5.6847752721    5.1287148151
C       -1.3789149536   -3.6781668731    3.7571546039
C        1.3909331718   -1.4815425091    2.4939293585
C       -0.8177602286   -3.3955087261    5.0108846501
C       -0.5735508175   -5.9593796316    3.8638638343
C       -1.2571971463   -4.9434943029    3.1715082971
C        0.5091501165   -0.7873169015    3.4275816395
C        0.3878060838   -0.8933446838    4.8032310948
O       -2.2147206038   -1.0958470134    5.3467310552
O       -0.6358618323   -1.7070660101    7.1429247157
S       -0.9261336337   -1.7117408648    5.7003690675
Cl      -0.3814023743   -7.5553166014    3.1717057478
Cl      -1.9480774749   -5.2292138535    1.5886824801
H        3.7341607259   -3.3369852081   -0.0152436829
H        2.6234220080   -1.2193725423   -0.6826586333
H        3.3487142679   -4.2719088055    2.2528823044
H        1.1350864974   -0.0447533245    0.8964610095
H        1.8740195442   -3.0979691404    3.8466515049
H        0.2668476521   -4.2216926021    6.6844558371
H        0.4794989904   -6.4709218584    5.6661321274
H       -1.9104912516   -2.9003092315    3.2159655812
H       -0.1567242283   -0.0574501196    2.9776257695
H        1.1756162575   -0.5074194527    5.4304763831
29   

C        2.8590989276   -3.1018709816    0.8812190493
C        2.1717215534   -1.9876133335    0.3940684629
C        2.8006770383   -3.4115593216    2.2421172695
C        1.4214273962   -1.1898079377    1.2652012904
C        2.0565933065   -2.6081293699    3.1130894594
C       -0.0688328105   -4.3959112991    5.5514003396
C        0.1165866218   -5.6109789810    4.8865664054
C       -1.2398886487   -3.5466505399    3.6210024337
C        1.3501342919   -1.4909951026    2.6357523453
C       -0.7338046791   -3.3440528798    4.9132753243
C       -0.3570744758   -5.8005201977    3.5818462278
C       -1.0493381425   -4.7559337250    2.9432816481
C        0.5415697750   -0.6668667387    3.5329816962
C        0.3628656861   -0.7591282830    4.8918645275
O       -2.2272562877   -1.1359438018    5.4094050768
O       -0.6265093825   -1.8002066549    7.1584496602
S       -0.9112073709   -1.7173103522    5.7170195953
Cl      -0.0762979183   -7.3270235900    2.7733973457
Cl      -1.6611617597   -4.9340069719    1.3129150966
H        3.4361487925   -3.7235043640    0.2055815361
H        2.2177125146   -1.7422155451   -0.6610802357
H        3.3314661125   -4.2762484309    2.6239587927
H        0.8911580289   -0.3322845060    0.8658583286
H        2.0251477825   -2.8634918861    4.1657686440
H        0.3117837570   -4.2653244295    6.5616816211
H        0.6393452968   -6.4205058191    5.3821270273
H       -1.7747155091   -2.7452629822    3.1191707445
H        0.0258686096    0.1667533703    3.0667194538
H        0.9931099122   -0.1870315830    5.5544734055
29   

C        2.7120405784   -3.3434083741    1.1798139955
C        1.8927425123   -2.3836112236    0.5806413455
C        2.8500357531   -3.3665648248    2.5695481718
C        1.2056818048   -1.4550843250    1.3707140351
C        2.1640994006   -2.4362495138    3.3579078320
C        0.0649012054   -4.3430088558    5.2749197025
C        0.2755017835   -5.4850239441    4.4977046460
C       -1.2184141287   -3.3827357921    3.4726390184
C        1.3233561206   -1.4752888117    2.7703028578
C       -0.6666434773   -3.2694206779    4.7570601569
C       -0.2374112594   -5.5786702543    3.1975296202
C       -1.0001211991   -4.5158453793    2.6811921370
C        0.5569883417   -0.5315974344    3.5915111066
C        0.3097579057   -0.6052979790    4.9287815607
O       -2.2253324604   -1.1870355211    5.5220838132
O       -0.5132980049   -1.9181660246    7.1198084785
S       -0.8679583327   -1.7244330323    5.7045950168
Cl       0.0841291342   -7.0092552304    2.2423637001
Cl      -1.6615973235   -4.5743661884    1.0616109592
H        3.2391388702   -4.0672952535    0.5682598468
H        1.7850139083   -2.3621050850   -0.4980378871
H        3.4863484703   -4.1084691448    3.0382931298
H        0.5665483927   -0.7245875647    0.8872346611
H        2.2813235242   -2.4698094879    4.4351247282
H        0.4803328272   -4.2839116215    6.2779726785
H        0.8518449701   -6.3097935592    4.8994541244
H       -1.8061059952   -2.5654810819    3.0648734953
H        0.1763119943    0.3500590953    3.0856387098
H        0.7146084217    0.1417907926    5.5935885040
29   

C        2.6383028432   -3.4113002500    1.2928371078
C        1.8112010253   -2.4788430015    0.6619196169
C        2.8051103304   -3.3638877937    2.6789175988
C        1.1445504292   -1.5075658063    1.4172633078
C        2.1382301139   -2.3917181880    3.4325756785
C        0.0749095585   -4.3635872987    5.1655000936
C        0.2886579008   -5.4891640307    4.3660518695
C       -1.2221369742   -3.3755110471    3.3883742235
C        1.2882190430   -1.4597054698    2.8135285382
C       -0.6651254245   -3.2838767216    4.6721011940
C       -0.2293528696   -5.5605711150    3.0667662503
C       -1.0002530959   -4.4921678087    2.5742249743
C        0.5491190935   -0.4630326373    3.6015159598
C        0.1777163589   -0.5370859577    4.9009296734
O       -2.2813186594   -1.3051945023    5.5729214920
O       -0.4672471219   -1.9894265239    7.0582287890
S       -0.8888016516   -1.7705383933    5.6650201126
Cl       0.0950854020   -6.9714582965    2.0837328754
Cl      -1.6694883374   -4.5246723664    0.9571736933
H        3.1496872550   -4.1681438484    0.7084498344
H        1.6819241778   -2.5115392694   -0.4141117612
H        3.4489244628   -4.0832962060    3.1718093526
H        0.4999691266   -0.7976097591    0.9109403165
H        2.2775225253   -2.3676994144    4.5076478143
H        0.4922165632   -4.3230449572    6.1687113851
H        0.8703860537   -6.3184259938    4.7503799445
H       -1.8184231259   -2.5550899935    3.0003639267
H        0.3117646639    0.4650494640    3.0911475456
H        0.3754574988    0.3024288104    5.5494962764
29   

C        3.1676540143   -3.5334461129    1.9163636710
C        2.1351576016   -3.0602512607    1.1019220973
C        3.3175236040   -3.0282950431    3.2105824552
C        1.2538779031   -2.0843657014    1.5812663645
C        2.4326537179   -2.0566465734    3.6904322803
C        0.1842470654   -4.2671271522    4.4960819625
C        0.0636543209   -5.2718879386    3.5353411634
C       -1.7897353093   -3.2031771569    3.6097785062
C        1.3863902772   -1.5765131221    2.8832335265
C       -0.7305689922   -3.2087662277    4.5275260429
C       -0.9714980444   -5.2471559401    2.5941901592
C       -1.9149882717   -4.2036154177    2.6368353565
C        0.4412454624   -0.5694488990    3.3935683275
C        0.0186328725   -0.4506164304    4.6670491825
O       -1.7868682649   -1.4782320391    6.3419827852
O        0.5429037730   -2.1440268805    6.6846078560
S       -0.5093428163   -1.8299401467    5.7032337407
Cl      -1.0656431462   -6.5071848571    1.3833769770
Cl      -3.2294617375   -4.1239111864    1.4840690435
H        3.8518795712   -4.2879156160    1.5442464502
H        2.0152464578   -3.4509831780    0.0976461322
H        4.1200591447   -3.3872780271    3.8452967763
H        0.4535687951   -1.7334624591    0.9392766509
H        2.5618358995   -1.6742856795    4.6983388909
H        1.0067264118   -4.2957368071    5.2064249928
H        0.7894501057   -6.0757962256    3.5080178380
H       -2.5197410538   -2.3994759390    3.6348165985
H        0.0786711786    0.1633539814    2.6798959432
H       -0.2216025933    0.5206638431    5.0713848845
29   

C        3.1551147848   -3.5512155554    1.9809245180
C        2.1284497397   -3.0785914556    1.1586888042
C        3.3188379119   -3.0182618427    3.2623962155
C        1.2672703087   -2.0753299664    1.6175687630
C        2.4533917218   -2.0195573808    3.7218818132
C        0.1933124996   -4.2720064653    4.4212817765
C        0.0500170585   -5.2761069410    3.4631459255
C       -1.7967683041   -3.2031852668    3.5784967639
C        1.4135482124   -1.5401628956    2.9068730432
C       -0.7192079240   -3.2124674093    4.4743683072
C       -1.0055613886   -5.2492260384    2.5451855067
C       -1.9451863134   -4.2031672227    2.6081439485
C        0.4914195913   -0.4965766593    3.3940130478
C       -0.0667401049   -0.4280106557    4.6129763685
O       -1.7228729880   -1.5482876029    6.3760141119
O        0.6447349066   -2.1316469714    6.5668174182
S       -0.4748764917   -1.8412608197    5.6546260127
Cl      -1.1298676938   -6.5100414015    1.3378928209
Cl      -3.2846537526   -4.1209162468    1.4846949607
H        3.8242436021   -4.3265497506    1.6246062886
H        1.9975767835   -3.4905484369    0.1643156516
H        4.1169741197   -3.3762746857    3.9032015722
H        0.4714838058   -1.7235826282    0.9704171290
H        2.5929223842   -1.6145966132    4.7195932709
H        1.0308154645   -4.3029002311    5.1137495141
H        0.7733836112   -6.0815221265    3.4203966401
H       -2.5245529453   -2.3982607263    3.6195184354
H        0.2407899886    0.2911435023    2.6908090113
H       -0.4495039971    0.5116027147    4.9809120782
29   

C        3.1275712115   -3.5690427825    2.0181365016
C        2.1015660857   -3.0810665321    1.2039866918
C        3.3175999177   -3.0296337295    3.2934499349
C        1.2679365238   -2.0556977022    1.6646959262
C        2.4790366720   -2.0088961071    3.7547804902
C        0.2037200530   -4.2808648353    4.4061169548
C        0.0622445308   -5.2909271108    3.4539567806
C       -1.7950319612   -3.2273237764    3.5650698640
C        1.4412729649   -1.5138681593    2.9476182170
C       -0.7149050462   -3.2266637045    4.4578237091
C       -0.9970608675   -5.2748652689    2.5400532768
C       -1.9417382995   -4.2332597913    2.6006250795
C        0.5488647022   -0.4412576017    3.4356859218
C       -0.1477296657   -0.4286973687    4.5801756972
O       -1.7123648602   -1.5977880006    6.3909869637
O        0.6770385268   -2.1087513707    6.5122642344
S       -0.4769931785   -1.8506471920    5.6335721607
Cl      -1.1197426805   -6.5434319665    1.3407295422
Cl      -3.2859628483   -4.1642951004    1.4819323209
H        3.7756173833   -4.3613877760    1.6603086885
H        1.9498074144   -3.4979440166    0.2146439252
H        4.1151001726   -3.3998061622    3.9280858367
H        0.4723838410   -1.6907337371    1.0245886860
H        2.6371842263   -1.5986997732    4.7475706279
H        1.0439156373   -4.3033961727    5.0956003176
H        0.7897258731   -6.0926894498    3.4129613997
H       -2.5268568751   -2.4260470295    3.6041046292
H        0.4154259625    0.4061002275    2.7708472956
H       -0.6436496903    0.4749320204    4.9000971308
29   

C        1.9929510872   -3.0252091837    0.8731625939
C        1.0931105287   -1.9558525295    0.8726502070
C        2.7099219945   -3.3288083133    2.0337716340
C        0.9060521821   -1.1967890805    2.0332356791
C        2.5258552785   -2.5647928589    3.1917428732
C       -0.2611889985   -3.9911350898    5.4253912256
C        0.1592855705   -5.2871379529    5.1152568380
C       -0.9294692809   -3.6838790060    3.1295110031
C        1.6157291648   -1.4970033359    3.2072990660
C       -0.7924957601   -3.1691195151    4.4270582290
C        0.0484654333   -5.7902070334    3.8127790992
C       -0.5110400582   -4.9802660694    2.8086201894
C        1.4060280251   -0.7056417971    4.4417799888
C        0.2770703249   -0.6177839738    5.1553639018
O       -1.9174153814   -0.8275146975    3.6143771962
O       -2.1290477409   -1.3929742196    5.9856428896
S       -1.2765517802   -1.4461422823    4.7877277856
Cl       0.6084521831   -7.4105947192    3.4612420843
Cl      -0.6806530937   -5.5581501063    1.1647375412
H        2.1322391578   -3.6191962838   -0.0233480699
H        0.5353222784   -1.7155468144   -0.0256312382
H        3.4058216333   -4.1601361704    2.0374908765
H        0.2000902549   -0.3719139128    2.0222346144
H        3.0830375790   -2.8146148452    4.0875845508
H       -0.1653945912   -3.6185461972    6.4415546442
H        0.5815612901   -5.9155636826    5.8902903343
H       -1.3527833119   -3.0623528795    2.3454106176
H        2.2841229494   -0.2118307440    4.8453308633
H        0.2489756211   -0.0137718457    6.0492747395
29   

C        2.0058661245   -3.0173965866    0.8419778929
C        1.0975133498   -1.9562518695    0.8807621289
C        2.7354179317   -3.3488413817    1.9869290367
C        0.9136140209   -1.2341083765    2.0649822878
C        2.5541837282   -2.6220789663    3.1691641278
C       -0.2803904130   -3.9695834900    5.4410530522
C        0.1474849919   -5.2670950138    5.1477150163
C       -0.9390241136   -3.6917472739    3.1385432108
C        1.6336162947   -1.5642902764    3.2254498053
C       -0.8098096884   -3.1612052949    4.4306063786
C        0.0462058439   -5.7851266697    3.8503011632
C       -0.5121535750   -4.9893111681    2.8342877765
C        1.4256990953   -0.8172853644    4.4828525855
C        0.2570139186   -0.5880982184    5.0975551352
O       -1.9577074581   -0.8389874703    3.5931111813
O       -2.1332705263   -1.3617553959    5.9757350336
S       -1.2969987932   -1.4340557103    4.7674585603
Cl       0.6168243562   -7.4061874963    3.5195967639
Cl      -0.6689026525   -5.5856117399    1.1957591784
H        2.1428651404   -3.5826642318   -0.0732559084
H        0.5310445356   -1.6930117028   -0.0056064822
H        3.4390892082   -4.1731614979    1.9595086132
H        0.2028305602   -0.4135362955    2.0812740118
H        3.1216241183   -2.8949214305    4.0517300814
H       -0.1910918282   -3.5847988700    6.4532928521
H        0.5687488726   -5.8848141484    5.9318564777
H       -1.3611725575   -3.0812383940    2.3451812147
H        2.3212957190   -0.4531595786    4.9758581136
H        0.2095919577    0.1021306603    5.9258522746
29   

C        2.0454129761   -3.0038597654    0.8246834717
C        1.1179165735   -1.9606062993    0.8843996375
C        2.7789569285   -3.3465115462    1.9637075576
C        0.9186674662   -1.2678625083    2.0834588899
C        2.5821210175   -2.6495382908    3.1613480295
C       -0.2970601251   -3.9445750684    5.4543967899
C        0.1417120617   -5.2390967304    5.1638138454
C       -0.9605266040   -3.6784294641    3.1517668517
C        1.6419007246   -1.6102842881    3.2391436890
C       -0.8334334813   -3.1430317704    4.4421143756
C        0.0447857783   -5.7607911161    3.8674865930
C       -0.5216175003   -4.9724882569    2.8500818787
C        1.4140846867   -0.9000541771    4.5103590949
C        0.2256777130   -0.5425296280    5.0241797964
O       -2.0413554221   -0.8477058089    3.6165107562
O       -2.1177147964   -1.3336652653    6.0120098616
S       -1.3288064744   -1.4169174453    4.7729807657
Cl       0.6309749619   -7.3768874147    3.5397658517
Cl      -0.6725253613   -5.5731233769    1.2126226417
H        2.1945131642   -3.5462226992   -0.1024375121
H        0.5486773969   -1.6883632362    0.0025249367
H        3.4979824563   -4.1567394396    1.9195896817
H        0.1930795080   -0.4607731364    2.1143089748
H        3.1530184179   -2.9324651847    4.0384688573
H       -0.2103347600   -3.5563276565    6.4656018263
H        0.5687800378   -5.8513854462    5.9490736269
H       -1.3888502206   -3.0737983152    2.3571830208
H        2.2985529377   -0.6430937233    5.0842764144
H        0.1707711253    0.2408606423    5.7644299795
29   

C        2.1004510782   -3.0168033050    0.8191623608
C        1.1511813567   -1.9936007790    0.8806744700
C        2.8271250703   -3.3591077802    1.9626322688
C        0.9235384294   -1.3204731569    2.0857403752
C        2.6015357360   -2.6822620921    3.1667790538
C       -0.3173972792   -3.9387858948    5.4486818578
C        0.1291776523   -5.2253704233    5.1359280273
C       -1.0182712989   -3.6513029863    3.1595560077
C        1.6397857365   -1.6628277964    3.2464335943
C       -0.8752064101   -3.1298668554    4.4538764476
C        0.0191233337   -5.7316875473    3.8345649240
C       -0.5704317540   -4.9368847180    2.8354473945
C        1.3773105948   -0.9788394459    4.5233383938
C        0.1853130969   -0.5072739618    4.9364785143
O       -2.1748746972   -0.8581581016    3.7068373349
O       -2.0681482481   -1.3279570234    6.1051944841
S       -1.3724491886   -1.4097516955    4.8113919302
Cl       0.6184261501   -7.3367790482    3.4778738186
Cl      -0.7375972730   -5.5181504794    1.1926425782
H        2.2717696257   -3.5438063366   -0.1129597537
H        0.5871795239   -1.7220691899   -0.0047658101
H        3.5632184046   -4.1537612300    1.9167849257
H        0.1804114067   -0.5295835098    2.1172306307
H        3.1674388608   -2.9661823857    4.0467797947
H       -0.2192897951   -3.5615964626    6.4631347580
H        0.5735449763   -5.8429821020    5.9073055618
H       -1.4643034095   -3.0412665913    2.3789618850
H        2.2311490386   -0.8112291124    5.1717999894
H        0.1350027481    0.3730617395    5.5585797782
29   

C        2.2159815284   -3.0960850309    0.8618809485
C        1.2201561999   -2.1165936011    0.8824429264
C        2.9349312422   -3.3793391620    2.0261200500
C        0.9388617418   -1.4281633320    2.0673547238
C        2.6543722714   -2.6882073385    3.2104839105
C       -0.2940514030   -3.9445760058    5.4073778605
C        0.1525200628   -5.2094912524    5.0174070745
C       -1.1472663259   -3.5834665448    3.1810163821
C        1.6462131362   -1.7119363057    3.2490636939
C       -0.9270381476   -3.1086893458    4.4819922804
C       -0.0313520470   -5.6672636017    3.7066308944
C       -0.6984089361   -4.8469232567    2.7790899704
C        1.3243839411   -1.0170007913    4.5043598840
C        0.1282838398   -0.4729685229    4.8271813230
O       -2.3860000746   -0.8648614020    3.9773400962
O       -1.8971350899   -1.3594612917    6.3247344991
S       -1.4112127850   -1.4088173065    4.9367836589
Cl       0.5745723103   -7.2440783107    3.2493439569
Cl      -0.9582682596   -5.3679269448    1.1282715552
H        2.4296048228   -3.6344755362   -0.0548625638
H        0.6620425305   -1.8915605333   -0.0195522442
H        3.7080953663   -4.1392095299    2.0116345571
H        0.1606593331   -0.6716202938    2.0670771864
H        3.2155941735   -2.9270265492    4.1067077419
H       -0.1357888929   -3.6033008243    6.4271015936
H        0.6562902975   -5.8467531423    5.7343836858
H       -1.6530885320   -2.9524154503    2.4556246591
H        2.1360063254   -0.8841808916    5.2123513552
H        0.0776268647    0.5151987949    5.2575686812
29   

C        2.6769530650   -3.3423007435    1.2095418996
C        1.4367109803   -2.7072690851    1.1136494710
C        3.4648409728   -3.1557048441    2.3481317518
C        0.9840382515   -1.8921583381    2.1566489358
C        3.0073350925   -2.3449815613    3.3934398482
C       -0.1473042492   -3.9494778360    4.9855042161
C        0.1562914506   -5.1446149233    4.3320087029
C       -1.7287878594   -3.4167051513    3.2438813316
C        1.7560300269   -1.7111318615    3.3170730880
C       -1.0746683563   -3.0604210657    4.4313786761
C       -0.4659191058   -5.4830378408    3.1249742613
C       -1.4286445379   -4.6132607538    2.5794634834
C        1.2673555624   -0.8976570741    4.4350585254
C        0.0007845896   -0.4420834512    4.6481393599
O       -2.6472965896   -0.8558691034    4.7481416022
O       -1.3129641823   -1.5648042411    6.6815700898
S       -1.3825302856   -1.4441575034    5.2166551981
Cl      -0.0303276573   -6.9743880858    2.3196072172
Cl      -2.2405236271   -4.9904802479    1.0758177157
H        3.0269978215   -3.9755215324    0.4017956265
H        0.8223639800   -2.8475490990    0.2312651555
H        4.4307179462   -3.6426565624    2.4223896033
H        0.0209558492   -1.4034800358    2.0621991659
H        3.6298292052   -2.2185132872    4.2722146670
H        0.3543564056   -3.6998255796    5.9168004968
H        0.8921666020   -5.8169375727    4.7567564026
H       -2.4690004943   -2.7470174080    2.8145689493
H        2.0120118813   -0.5756470371    5.1559924144
H       -0.2001912050    0.6177693648    4.6289040646
29   

C        3.0106100051   -3.2112023896    1.1642685416
C        1.6684284209   -2.8281287053    1.1084069899
C        3.7865685891   -2.8578716423    2.2710475359
C        1.1046979363   -2.0933536684    2.1570352563
C        3.2185883748   -2.1300528809    3.3230279025
C       -0.2837916761   -3.9985079487    4.9701364413
C       -0.1003239220   -5.2144148000    4.3105051276
C       -1.9591200725   -3.3868322011    3.3459314975
C        1.8688635228   -1.7415967136    3.2828036226
C       -1.2007498906   -3.0626486374    4.4792520604
C       -0.8324444951   -5.5261972238    3.1592916228
C       -1.7799080345   -4.6043589575    2.6756111171
C        1.2769913305   -1.0028857039    4.3975854594
C       -0.0020855130   -0.5246148487    4.5430945662
O       -2.6424675590   -0.7913246575    4.9279901602
O       -1.1428570535   -1.5483857139    6.7284071286
S       -1.3654795570   -1.4326158144    5.2783610517
Cl      -0.5520606035   -7.0505774215    2.3465871811
Cl      -2.7258151206   -4.9465762911    1.2435777478
H        3.4485164636   -3.7786967659    0.3505343564
H        1.0618543776   -3.0998958156    0.2516986656
H        4.8300767210   -3.1491080074    2.3150468358
H        0.0634003332   -1.8006220062    2.0918685994
H        3.8368559795   -1.8688774537    4.1747699260
H        0.2999710562   -3.7726738659    5.8589017942
H        0.6248559068   -5.9257146380    4.6879876836
H       -2.6910840009   -2.6788615541    2.9663927822
H        1.9466468024   -0.7687139106    5.2190443694
H       -0.2404899310    0.4817963267    4.2367374069
29   

C        3.4365492726   -2.9928042952    1.0959570118
C        2.0396926656   -2.9561423041    1.1021377926
C        4.1498832715   -2.4219861978    2.1532324856
C        1.3587973030   -2.3449547058    2.1608864642
C        3.4670163601   -1.8190328735    3.2157479291
C       -0.4924768106   -4.1049134325    4.9853549487
C       -0.4781478566   -5.3502583091    4.3554555917
C       -2.1911694945   -3.3611430374    3.4421960709
C        2.0632571542   -1.7704198418    3.2319095748
C       -1.3390589148   -3.0920179508    4.5221490951
C       -1.3103750129   -5.6133114692    3.2612295442
C       -2.1821881092   -4.6078712119    2.8023941651
C        1.3546585436   -1.1353721192    4.3402092845
C        0.0527815110   -0.6746322947    4.4313703258
O       -2.5565965386   -0.7083198314    5.0328797969
O       -0.9771581537   -1.5576865498    6.7277626901
S       -1.3104751745   -1.4436780373    5.2988724073
Cl      -1.2485604981   -7.1827867554    2.4891513848
Cl      -3.2480212616   -4.8858728097    1.4422972311
H        3.9649961991   -3.4610331925    0.2728637144
H        1.4818957201   -3.4003052452    0.2852590965
H        5.2339426074   -2.4440384125    2.1491874295
H        0.2751176046   -2.3242725856    2.1487149466
H        4.0373177714   -1.3780981842    4.0259757564
H        0.1622245087   -3.9208017332    5.8336407009
H        0.1884851798   -6.1256846459    4.7145728972
H       -2.8694322352   -2.5905755812    3.0850976439
H        1.9435358611   -0.9851056305    5.2396603656
H       -0.2252332655    0.2107938349    3.8818915165
