56

C      6.43680   -4.57063    3.40746
C      6.95003   -3.94294    4.52849
C      6.87559    1.73369    4.53220
C      5.44613    1.66480    2.53911
C      6.10904    0.73167    5.13479
C      4.68098    0.67097    3.15793
C      4.26151   -1.76858   -0.79425
C      2.08349   -2.68620   -0.31182
C      4.48903   -3.18456    3.46708
C      5.19933   -4.19776    2.83092
C      4.85471   -2.77392   -0.02386
C      2.66275   -3.70725    0.45411
C      4.06187   -3.75997    0.60691
C      6.29195   -2.82349    5.18139
C      2.86958   -1.70948   -0.93066
C      6.52445    2.17386    3.25709
C      5.00914    0.22141    4.44131
C      4.98210   -2.54465    4.61281
C      3.80955    1.23250   -1.37701
C      6.35810   -2.76381    0.14581
C      1.75197   -4.70212    1.14803
C      1.77753    0.76543    0.16534
C      1.46491    1.39162   -2.25910
C      4.71718   -4.79092    1.51192
C      2.34155    0.65080   -1.24944
O      6.84032   -2.16078    6.11127
O      4.40262    0.97904   -2.45727
O      4.20252    1.92966   -0.39882
O      4.06047   -0.97399    6.62889
O      2.74712   -1.13665    4.46627
O      2.23636   -0.75085   -1.68650
F      7.29606    3.15638    2.69010
S      4.05901   -1.13277    5.16102
H      7.02431   -5.35457    2.92338
H      7.92649   -4.21955    4.92359
H      7.74405    2.15883    5.02827
H      5.20337    1.99567    1.52869
H      6.36753    0.31291    6.10140
H      3.83340    0.24105    2.63558
H      4.86452   -1.01434   -1.28831
H      1.00266   -2.61423   -0.41101
H      3.55037   -2.83202    3.05015
H      6.63313   -2.63280    1.19733
H      6.81332   -3.70649   -0.18660
H      6.80317   -1.94846   -0.43028
H      1.90271   -5.72651    0.78275
H      1.91975   -4.71588    2.23073
H      0.70248   -4.44131    0.97900
H      0.74861    0.38278    0.20012
H      1.79509    1.80807    0.48863
H      2.38023    0.19560    0.87539
H      0.43410    1.01426   -2.23001
H      1.87912    1.24836   -3.26045
H      1.45932    2.46277   -2.02964
H      5.58315   -5.23054    0.99978
H      4.02618   -5.62454    1.68579
