68

C      2.86623    9.95539    4.93245
C      3.28705    8.64198    5.16473
C      2.51534   10.35857    3.63847
C    -13.48106   -2.06940   -1.95510
C     -1.02239    0.72173   -0.31997
C      0.64281    3.99694   -0.89616
C      1.27962    2.35858    0.76572
C      3.37207    7.73681    4.10414
C      2.58768    9.45326    2.57997
C    -12.33901   -1.40892   -2.40989
C     -2.23148    0.06444   -0.51393
C      1.84426    4.67525   -0.70685
C      2.48769    3.02130    0.96702
C     -2.13427    2.83725   -0.60712
C    -14.04662   -1.66262   -0.74278
C    -12.45434   -0.04016   -0.44681
C      0.33540    2.83364   -0.16516
C     -0.94885    2.12682   -0.36833
C      3.02803    8.14020    2.80430
C     -3.36499    2.20205   -0.79856
C    -11.80015   -0.37211   -1.64205
C     -3.40067    0.79777   -0.75670
C      2.75328    4.17834    0.22978
C      3.08154    7.22445    1.62058
C     -4.63925    2.99045   -1.01500
C     -5.86480    2.12037   -0.72495
C     -5.70850    0.77137   -1.41643
C     -6.88116   -0.18155   -1.19751
C     -9.29268   -0.46685   -1.58053
C    -10.52526    0.32334   -2.05847
N    -13.55253   -0.66456    0.00301
N      3.93656    6.13356    1.74908
N     -8.08503    0.31549   -1.87012
O      2.41266    7.40463    0.61161
O      4.65853    5.75099   -0.72565
O      5.24878    4.12351    1.14805
O     -4.55143    0.06921   -0.92318
O    -10.47912    1.63645   -1.51588
S      4.30079    5.02113    0.48254
H      2.80534   10.65991    5.75777
H      3.54245    8.32099    6.17087
H      2.18358   11.37735    3.45731
H    -13.92998   -2.87722   -2.52627
H     -0.12054    0.13688   -0.16271
H     -0.05620    4.36116   -1.64308
H      1.05591    1.47398    1.35449
H      3.66748    6.71104    4.30882
H      2.30926    9.74281    1.57157
H    -11.87762   -1.69192   -3.35465
H     -2.29159   -1.01984   -0.49300
H      2.08118    5.57158   -1.26807
H      3.21846    2.65065    1.67884
H     -2.11244    3.92494   -0.60566
H    -14.93778   -2.15582   -0.35685
H    -12.07487    0.77789    0.15976
H     -4.63948    3.88046   -0.37742
H     -4.68092    3.35061   -2.05129
H     -5.96508    1.94913    0.35346
H     -6.78316    2.59944   -1.07361
H     -5.56465    0.93242   -2.49714
H     -7.08749   -0.24783   -0.12426
H     -6.58407   -1.18714   -1.53436
H     -9.28587   -1.47170   -2.03138
H     -9.36440   -0.59190   -0.49517
H    -10.49831    0.37482   -3.16089
H      4.61768    6.08685    2.50103
H     -7.92599    0.31303   -2.87782
H     -9.52705    1.85590   -1.48227
