55

C      5.83898   -2.94537    4.71544
C      4.80043   -6.15242   -0.53093
C      4.68981   -2.48453    5.36440
C      5.78481   -4.14027    3.98738
C      4.80940   -7.07168    0.52624
C      3.69843   -5.30821   -0.71267
C      1.76823   -1.89689    1.30743
C     -0.54848   -2.53731    1.33486
C      3.49898   -3.21342    5.27709
C      4.59365   -4.86453    3.90876
C      3.72953   -7.12254    1.41512
C      2.61548   -5.38088    0.16815
C      2.08519   -2.98782    2.11612
C     -0.23872   -3.62161    2.15978
C      0.45425   -1.67308    0.87358
C      3.43096   -4.40634    4.54555
C      2.62963   -6.26540    1.25923
C      1.08733   -3.88324    2.53376
C      1.83705   -1.81225   -1.77886
C     -0.46882    1.45624   -0.37454
C      0.87196    0.76363   -0.00724
C     -1.20501    0.11820   -0.08949
C      0.16955   -0.62270   -0.16998
C      2.10198   -5.14867    4.43957
C      1.48209   -6.28066    2.25678
C      0.39938   -1.23826   -1.57355
N      1.37137   -5.13315    3.17599
O      2.77850   -0.97115   -1.70640
O      1.91122   -3.05831   -1.98350
H      6.76317   -2.37416    4.76410
H      5.64662   -6.10066   -1.21349
H      4.71437   -1.55077    5.92178
H      6.66721   -4.50072    3.46388
H      5.65533   -7.74358    0.66204
H      3.63627   -4.57415   -1.51369
H      2.56475   -1.27150    0.91518
H     -1.57738   -2.38394    1.01550
H      2.59902   -2.83393    5.75666
H      4.55854   -5.76677    3.30825
H      3.74316   -7.83431    2.24106
H      1.77548   -4.72052   -0.02222
H      3.12427   -3.18506    2.34631
H     -1.01563   -4.31077    2.48499
H     -0.51368    1.73639   -1.43154
H     -0.76839    2.32224    0.22644
H      1.73757    0.91445   -0.65348
H      1.15069    0.95083    1.03579
H     -1.62496    0.09561    0.92281
H     -1.97685   -0.19811   -0.80104
H      2.26121   -6.20143    4.69999
H      1.44005   -4.73209    5.21224
H      0.53855   -6.32869    1.70131
H      1.53723   -7.18799    2.87028
H      0.22014   -0.45992   -2.32809
H     -0.33461   -2.03796   -1.72435
