68

C      3.24564    9.80601    4.19634
C      3.68592    8.50810    4.47504
C      2.81152   10.13505    2.90665
C    -10.02443   -6.65613   -0.98771
C     -1.00534    0.35546   -0.28684
C      0.65994    3.56445   -1.14924
C      1.37368    2.02017    0.57080
C      3.70682    7.54430    3.46408
C      2.82035    9.17128    1.89852
C     -8.89470   -5.85163   -1.14197
C     -2.23105   -0.29393   -0.37574
C      1.87788    4.23507   -1.07080
C      2.59871    2.67610    0.66177
C     -2.10832    2.46800   -0.62715
C    -11.12592   -6.42266   -1.81674
C    -10.05749   -4.70402   -2.89412
C      0.38270    2.45262   -0.33154
C     -0.91939    1.75436   -0.41764
C      3.27935    7.87314    2.16796
C     -3.35500    1.84090   -0.71249
C     -8.90253   -4.84363   -2.11104
C     -3.40314    0.44209   -0.59221
C      2.83361    3.78257   -0.15866
C      3.26129    6.89233    1.03636
C     -4.62818    2.63730   -0.90744
C     -5.85696    1.80107   -0.53668
C     -5.73749    0.41716   -1.16471
C     -6.91892   -0.49378   -0.87393
C     -7.82125   -2.74404   -1.25632
C     -7.72976   -3.90429   -2.26570
N    -11.15049   -5.46937   -2.75857
N      4.11957    5.80532    1.17503
N     -6.75282   -1.78356   -1.54465
O      2.53445    7.01945    0.05979
O      4.69359    5.27492   -1.31122
O      5.37804    3.74911    0.61530
O     -4.57402   -0.27148   -0.65005
O     -7.69172   -3.37509   -3.58398
S      4.40098    4.61906   -0.04464
H      3.23466   10.55612    4.98273
H      4.00648    8.24482    5.47928
H      2.46479   11.14177    2.68971
H    -10.05328   -7.45141   -0.24802
H     -0.10227   -0.23258   -0.15002
H     -0.07692    3.89267   -1.87617
H      1.17459    1.17577    1.22397
H      4.01908    6.53213    3.70769
H      2.47765    9.40326    0.89504
H     -8.01461   -6.01155   -0.52119
H     -2.30050   -1.37481   -0.29344
H      2.09205    5.09210   -1.69855
H      3.36542    2.33855    1.35192
H     -2.07339    3.55358   -0.68907
H    -12.02475   -7.03094   -1.72424
H    -10.08515   -3.94651   -3.67284
H     -4.59048    3.55202   -0.30695
H     -4.70571    2.95556   -1.95499
H     -5.93116    1.69155    0.55134
H     -6.77404    2.28615   -0.88626
H     -5.61374    0.50751   -2.25307
H     -7.82931   -0.01778   -1.25471
H     -7.02851   -0.59403    0.21938
H     -7.79900   -3.13287   -0.22558
H     -8.78389   -2.24074   -1.39876
H     -6.80151   -4.46594   -2.06223
H      4.84268    5.79451    1.88808
H     -5.85501   -2.17433   -1.26080
H     -7.18366   -2.54338   -3.49953
