59

C      1.34859    0.96814   -1.89796
C      0.96273    2.57347   -0.13126
C     -1.29383   -0.24156   -1.10160
C      2.67044    1.40055   -1.99646
C      2.28805    2.99490   -0.23126
C     -2.62028   -0.65703   -1.03598
C     -6.52522   -6.52125   -5.05945
C     -7.59330   -4.50712   -5.89997
C     -6.28521   -6.94705   -6.36377
C     -7.35144   -4.93251   -7.21304
C     -1.96935    2.00179   -0.55622
C      0.46851    1.54996   -0.96400
C     -0.93408    1.10459   -0.87206
C      3.16086    2.41851   -1.16588
C     -3.31036    1.61027   -0.47064
C     -3.61287    0.27084   -0.72691
C     -7.17678   -5.30384   -4.83072
C     -6.70304   -6.14189   -7.42283
C      4.63261    2.89567   -1.27968
C     -4.39973    2.61603   -0.15165
C     -5.72074    1.92278    0.20783
C     -5.95067    0.77781   -0.77349
C     -7.24146    0.00773   -0.51704
C     -8.28699   -2.25686   -1.10190
C     -7.90828   -3.69816   -3.19022
C     -7.87458   -3.61773   -1.66291
N     -7.18264   -1.26397   -1.32659
O      4.94881    3.82467   -0.48989
O      5.31716    2.29181   -2.14792
O     -4.93643   -0.21499   -0.66064
O     -6.55967   -3.83743   -1.16646
O     -7.37322   -4.97161   -3.49604
F     -6.47009   -6.55373   -8.69085
H      0.98094    0.20084   -2.57768
H      0.31371    3.01162    0.62571
H     -0.51760   -0.97035   -1.31159
H      3.36139    0.97553   -2.71930
H      2.69305    3.77284    0.41014
H     -2.89118   -1.69670   -1.20332
H     -6.21315   -7.12456   -4.21235
H     -8.10816   -3.56577   -5.74322
H     -5.78007   -7.88611   -6.56611
H     -7.66338   -4.33321   -8.06243
H     -1.72445    3.04863   -0.39557
H     -4.08434    3.25945    0.67486
H     -4.55667    3.27600   -1.01405
H     -5.67063    1.50240    1.21874
H     -6.55721    2.62991    0.17477
H     -5.95355    1.17634   -1.80319
H     -8.13241    0.56889   -0.80444
H     -7.31268   -0.29428    0.52969
H     -9.20610   -1.87479   -1.55032
H     -8.41969   -2.33205   -0.02175
H     -7.29061   -2.91063   -3.65005
H     -8.94021   -3.59663   -3.55352
H     -8.57079   -4.36772   -1.26504
H     -7.11374   -1.02200   -2.32023
H     -6.27832   -1.71955   -1.09888
H     -6.19851   -4.62561   -1.61071
