30   

C       -1.4854496816    0.9634569443    0.9076648138
C       -1.2341565969   -0.2557730172    1.5397196247
C       -0.5037058459    1.5386456278    0.0991574038
C        5.5528355125    1.2263096756   -1.2597804557
C       -0.0016993567   -0.8969106170    1.3688503563
C        0.7285132551    0.8985445933   -0.0723264191
C        5.1995652647    0.0113285034   -1.8384494507
C        4.8896723631    1.6546004118   -0.1147636406
C        1.0067420072   -0.3261700446    0.5726806518
C        3.4642495892   -0.3164043582   -0.1651246874
C        4.1827639893   -0.7788849809   -1.2957702995
C        3.8575027766    0.8967287327    0.4419743331
C        2.2913810884   -1.0575555883    0.3842140039
C        3.8259363835   -3.1611583589   -1.1471085249
C        3.5598034193   -3.1145705445    0.3600485604
N        2.3393171267   -2.3409428246    0.6754395527
N        3.9382354343   -2.0142883940   -1.8967849638
O        3.9824478937   -4.2220751408   -1.7310545959
F        3.2554269075    1.3460256476    1.5678909144
H       -2.4412434223    1.4580466482    1.0395460687
H       -1.9960911583   -0.7101709640    2.1628122659
H       -0.6985470886    2.4799548074   -0.4020481027
H        6.3487012649    1.8259583904   -1.6892912733
H        0.1592921152   -1.8455300266    1.8701540721
H        1.4601590091    1.3604467367   -0.7250842062
H        5.7387435637   -0.3302956369   -2.7145526879
H        5.1701038981    2.5883987365    0.3580412763
H        3.4378082708   -4.1412078998    0.7163537170
H        4.4288074267   -2.6890521277    0.8697743538
H        4.2578053701   -2.1997577413   -2.8387604651
30   

C       -1.4479567414    1.0163145813    0.9392904723
C       -1.1304370149   -0.1085336996    1.7044524289
C       -0.5603878566    1.4587881260   -0.0441766887
C        5.5529695793    1.2402756331   -1.1688076752
C        0.0729570879   -0.7897681393    1.4875012855
C        0.6425578871    0.7778032559   -0.2605654792
C        5.2415842619    0.0296100056   -1.7791363345
C        4.8295066229    1.6471574189   -0.0532963162
C        0.9777853201   -0.3570938044    0.5053286860
C        3.4370081711   -0.3438618499   -0.1901524682
C        4.2097049200   -0.7797012367   -1.2961179651
C        3.7816769382    0.8705277435    0.4450477782
C        2.2481215831   -1.1034158293    0.2910800637
C        3.8355683720   -3.1682462661   -1.2352281552
C        3.4986721333   -3.1685023664    0.2576073295
N        2.2729852364   -2.3937338969    0.5478947723
N        3.9980394187   -1.9997425028   -1.9402435091
O        4.0098047970   -4.2111106892   -1.8459847547
F        3.1218680943    1.3034412304    1.5447164914
H       -2.3811001275    1.5423250820    1.1068893173
H       -1.8174070532   -0.4568560645    2.4673166884
H       -0.8048847605    2.3290110938   -0.6426238527
H        6.3606992578    1.8548959793   -1.5525383878
H        0.2991933378   -1.6620182228    2.0918488969
H        1.3134054899    1.1322467367   -1.0353745046
H        5.8234834892   -0.2919054717   -2.6352814455
H        5.0738280571    2.5793752953    0.4421041479
H        3.3520323187   -4.2052822432    0.5729378110
H        4.3474182659   -2.7696569349    0.8202498758
H        4.3615301211   -2.1589749384   -2.8710543312
30   

C       -1.4080196970    1.0523477975    0.9474830841
C       -0.9993840170    0.0430000136    1.8235619994
C       -0.6373294581    1.3465880027   -0.1803385742
C        5.5647431457    1.2492398623   -1.0697715784
C        0.1766908086   -0.6726767159    1.5705439685
C        0.5382038377    0.6303893496   -0.4314264006
C        5.2886596004    0.0489617550   -1.7159581825
C        4.7894243740    1.6307210094    0.0191626181
C        0.9550072189   -0.3946449240    0.4381513116
C        3.4220056168   -0.3697718904   -0.2112912901
C        4.2425910627   -0.7763596518   -1.2943038627
C        3.7269024271    0.8380621103    0.4574801413
C        2.2192823203   -1.1462883211    0.2003763477
C        3.8577870076   -3.1673722396   -1.3252332073
C        3.4581688122   -3.2159916667    0.1506816786
N        2.2274610879   -2.4423651088    0.4212999370
N        4.0611384460   -1.9776571868   -1.9819779097
O        4.0499601634   -4.1901886874   -1.9638166491
F        3.0181545830    1.2502443373    1.5343560058
H       -2.3195858548    1.6058048936    1.1430524109
H       -1.5931741912   -0.1870676003    2.7008615388
H       -0.9498529247    2.1302199881   -0.8611099095
H        6.3834914047    1.8767095217   -1.4064251681
H        0.4846194118   -1.4526878312    2.2589334363
H        1.1292070826    0.8694831003   -1.3088874629
H        5.9080328045   -0.2505286065   -2.5535838418
H        5.0035650362    2.5560940278    0.5406419563
H        3.2922281638   -4.2619416600    0.4233149549
H        4.2859739971   -2.8440970807    0.7609335108
H        4.4643681002   -2.1090526208   -2.9007115336
30   

C       -1.3746515031    1.0758045488    0.9324058864
C       -0.8515928034    0.2233016721    1.9089082021
C       -0.7361988785    1.1874669530   -0.3057866617
C        5.5859744016    1.2530610377   -0.9538267671
C        0.3055413916   -0.5188820414    1.6451010390
C        0.4204532107    0.4442042782   -0.5661711151
C        5.3296190002    0.0716232098   -1.6408520698
C        4.7787830938    1.6039731484    0.1217446106
C        0.9461565219   -0.4278208822    0.4029578978
C        3.4219240389   -0.3918800853   -0.2007514707
C        4.2726854898   -0.7654884348   -1.2729909549
C        3.7050633613    0.7992552538    0.5078701713
C        2.2093964419   -1.1829946519    0.1494472314
C        3.8785600361   -3.1541958797   -1.4019698568
C        3.4354037397   -3.2565768028    0.0583517136
N        2.2028350754   -2.4848504848    0.3249489950
N        4.1090552891   -1.9421829369   -2.0066541584
O        4.0822826148   -4.1531106863   -2.0738964505
F        2.9680321354    1.1848785767    1.5751665708
H       -2.2711414515    1.6505603206    1.1360417112
H       -1.3408633856    0.1370211053    2.8723942079
H       -1.1355493598    1.8513913300   -1.0640358168
H        6.4129768785    1.8902803601   -1.2494474429
H        0.7086348972   -1.1750341843    2.4091235709
H        0.9148667000    0.5426024069   -1.5265200587
H        5.9721421800   -0.2029846124   -2.4695048685
H        4.9760173933    2.5153388301    0.6736342318
H        3.2548049025   -4.3110159687    0.2851797847
H        4.2477477931   -2.9151177520    0.7059850602
H        4.5385339155   -2.0421879392   -2.9174258953
30   

C       -1.3916776966    1.0869785796    0.8892939566
C       -0.7309605515    0.4670977747    1.9534269543
C       -0.8886676552    0.9585192584   -0.4079758923
C        5.6274698959    1.2245430393   -0.8277636874
C        0.4282221942   -0.2815938622    1.7183203077
C        0.2705475726    0.2090763284   -0.6375329659
C        5.3444618235    0.0817797367   -1.5668218632
C        4.8311092033    1.5415940903    0.2657062486
C        0.9367403781   -0.4283160278    0.4227237435
C        3.4308166150   -0.4093865093   -0.1413538925
C        4.2715069834   -0.7493705959   -1.2335838058
C        3.7417598387    0.7426649909    0.6189769688
C        2.2006859716   -1.1926485338    0.1667090963
C        3.8312839504   -3.1212432703   -1.4766306513
C        3.3800951626   -3.2848888299   -0.0245679539
N        2.1621536998   -2.5007879323    0.2705529129
N        4.0823493762   -1.8858078152   -2.0227714732
O        4.0180399280   -4.0901705489   -2.1957423000
F        3.0205464451    1.0968930408    1.7064061034
H       -2.2901849492    1.6662963455    1.0698187268
H       -1.1153221342    0.5659183250    2.9622006594
H       -1.3955293104    1.4397110509   -1.2367089533
H        6.4661275099    1.8579845981   -1.0975003813
H        0.9371390999   -0.7580791199    2.5491850476
H        0.6582332058    0.1178483757   -1.6463834239
H        5.9781051197   -0.1669355310   -2.4103402504
H        5.0489249628    2.4225998607    0.8576809605
H        3.1761411903   -4.3449151767    0.1505232696
H        4.1958545806   -2.9913651714    0.6419643528
H        4.5098130491   -1.9500424641   -2.9377093584
30   

C       -1.2749172339    0.7195763182    0.6763969030
C       -0.4807090854    0.4407226898    1.7910274709
C       -0.8366928398    0.3437832253   -0.5949560872
C        5.8629400612    1.3333160318   -0.7000654096
C        0.7486887373   -0.2099599020    1.6321441983
C        0.3933071838   -0.3055743293   -0.7464269237
C        5.5994202645    0.2441961403   -1.5210354500
C        5.0835580267    1.5337792599    0.4315782550
C        1.2052906993   -0.5911517019    0.3652192855
C        3.7296417080   -0.4215961943   -0.1028574088
C        4.5609081706   -0.6454843956   -1.2335428140
C        4.0275495039    0.6743620654    0.7422024541
C        2.5272318271   -1.2719643713    0.1447278193
C        4.2256311446   -3.0085348981   -1.6420397923
C        3.7892460711   -3.2941871101   -0.2044858396
N        2.5376968401   -2.5846372578    0.1340294928
N        4.3994505139   -1.7260517388   -2.1034189297
O        4.4562694190   -3.9142214205   -2.4277865259
F        3.3335548492    0.9184132339    1.8739182463
H       -2.2284631657    1.2210982244    0.7978634376
H       -0.8185074006    0.7235452360    2.7815121343
H       -1.4493084243    0.5528377838   -1.4646073927
H        6.6746660940    2.0138584943   -0.9352459470
H        1.3423306905   -0.4372392894    2.5104426873
H        0.7251298197   -0.5954739882   -1.7376562561
H        6.2221664856    0.0834203490   -2.3935179293
H        5.2893008177    2.3702920405    1.0888249369
H        3.6313795056   -4.3715891847   -0.1036275533
H        4.5920045855   -3.0105021823    0.4818089517
H        4.8163816700   -1.7047164845   -3.0251827591
30   

C       -1.3051611795    0.6953300977    0.5625808643
C       -0.4303057680    0.7247488669    1.6494539070
C       -0.9341119708    0.0198658388   -0.5996823029
C        5.9230808858    1.3024173608   -0.5798964632
C        0.8148485308    0.0883425282    1.5708807315
C        0.3112416228   -0.6123690196   -0.6717403773
C        5.5590143032    0.3103057056   -1.4807244297
C        5.2456551361    1.4014519863    0.6281011468
C        1.2153879045   -0.5823349093    0.4074991836
C        3.7654880521   -0.4308156642    0.0001048458
C        4.5119771243   -0.5713174094   -1.2010169305
C        4.1846278744    0.5459017969    0.9340781801
C        2.5418808964   -1.2651962186    0.2249849833
C        4.1328262229   -2.8918802069   -1.7479466279
C        3.7603263588   -3.2714686491   -0.3124295853
N        2.5287145398   -2.5739395176    0.1134392433
N        4.2694075418   -1.5797056144   -2.1362034679
O        4.3268439470   -3.7442782754   -2.6004002465
F        3.6198625133    0.6665327102    2.1514673137
H       -2.2706352242    1.1848092947    0.6244529053
H       -0.7210832773    1.2309859598    2.5629284380
H       -1.6100845320   -0.0179148548   -1.4464255182
H        6.7400597475    1.9787287295   -0.8090457901
H        1.4303381677    0.0886771770    2.4587707315
H        0.5872100975   -1.1362423971   -1.5809639116
H        6.1125151410    0.2151432448   -2.4077988004
H        5.5406997344    2.1511301025    1.3526513176
H        3.5958451455   -4.3519328892   -0.2748280741
H        4.5930165970   -3.0368092057    0.3566225813
H        4.6342085294   -1.4980925382   -3.0764900972
30   

C       -1.3625089279    0.6233422355    0.5240598197
C       -0.3881175841    0.9395206198    1.4703368359
C       -1.0663488445   -0.2914055374   -0.4843305738
C        5.9468423155    1.3164322533   -0.4267224300
C        0.8805870571    0.3491092431    1.4055235977
C        0.2015117525   -0.8777169686   -0.5442844660
C        5.5133830023    0.4476387381   -1.4217473311
C        5.3468353657    1.2665825494    0.8267374302
C        1.2103537855   -0.5631871582    0.3913634498
C        3.7753018618   -0.4187882330    0.0482782042
C        4.4619224003   -0.4423222994   -1.1911358091
C        4.2842844473    0.3958271588    1.0824581572
C        2.5378759208   -1.2458880739    0.2399356253
C        4.0633448114   -2.7106973953   -1.8922526958
C        3.7487707239   -3.1995614731   -0.4722569020
N        2.5262811142   -2.5458536115    0.0429014344
N        4.1712920010   -1.3707204606   -2.1925703369
O        4.2301331166   -3.4983963408   -2.8102364968
F        3.8123721163    0.3195773957    2.3448001246
H       -2.3445889311    1.0798811957    0.5757396902
H       -0.6164607011    1.6415533294    2.2642726785
H       -1.8176881154   -0.5514618531   -1.2213778733
H        6.7668220272    2.0011556436   -0.6168993758
H        1.5747777233    0.6201617385    2.1833148142
H        0.4101446881   -1.5907013996   -1.3353613008
H        6.0202600518    0.4488319426   -2.3798411478
H        5.7099853614    1.9023591539    1.6253859131
H        3.5939150386   -4.2815464884   -0.5068896853
H        4.6031091680   -3.0056806422    0.1825789243
H        4.4988630165   -1.2184203946   -3.1377160816
30   

C       -1.3953840373    0.5925440265    0.5638237186
C       -0.3302352709    1.1088880254    1.2999667443
C       -1.1811346760   -0.4974080290   -0.2763565236
C        5.9682367181    1.3169305001   -0.2931120711
C        0.9455428988    0.5403426082    1.1948234301
C        0.0938543746   -1.0624113944   -0.3772738560
C        5.5344094238    0.5144055359   -1.3435632738
C        5.3546231509    1.2007045097    0.9505768007
C        1.1951930337   -0.5529891977    0.3490428314
C        3.7675022691   -0.4052246380    0.0524995867
C        4.4685576923   -0.3724481480   -1.1760301894
C        4.2765556367    0.3322965224    1.1412332437
C        2.5225424563   -1.2307163947    0.1990942365
C        4.0686036467   -2.6046112184   -1.9747992803
C        3.7524361756   -3.1510448712   -0.5747126577
N        2.5242452365   -2.5254250279   -0.0369212956
N        4.1827791642   -1.2533611525   -2.2201465668
O        4.2368900972   -3.3552800264   -2.9230887713
F        3.7789201497    0.1807464927    2.3896761472
H       -2.3825248058    1.0335999357    0.6451177267
H       -0.4908707971    1.9559769290    1.9572008481
H       -2.0019191086   -0.9105717416   -0.8516898670
H        6.8004193347    1.9989146085   -0.4337457155
H        1.7216074544    0.9975603969    1.7868067746
H        0.2275002109   -1.9128751715   -1.0378661914
H        6.0538989339    0.5616285917   -2.2937170682
H        5.7191489987    1.7804812193    1.7901745346
H        3.6042133939   -4.2317049618   -0.6524561838
H        4.6038622759   -2.9790512584    0.0899755887
H        4.5168879626   -1.0619796238   -3.1558355548
30   

C       -1.4013460028    0.6020698695    0.6177994192
C       -0.2712514564    1.2484955909    1.1151512979
C       -1.2580971279   -0.6192115977   -0.0359370270
C        5.9829392793    1.3016239446   -0.1745743321
C        0.9979020472    0.6771238559    0.9595581623
C        0.0105147028   -1.1873410930   -0.1882292285
C        5.5796049037    0.5336740693   -1.2628597491
C        5.3173629534    1.1646530523    1.0401716439
C        1.1767213221   -0.5509647835    0.3009932529
C        3.7504551548   -0.3999427001    0.0392127777
C        4.4971496664   -0.3432090741   -1.1608125297
C        4.2208436270    0.3077771738    1.1644246131
C        2.5016625607   -1.2251632483    0.1332735185
C        4.1046175808   -2.5465403840   -2.0356939294
C        3.7521176741   -3.1282378381   -0.6588440612
N        2.5127350654   -2.5148090696   -0.1321465948
N        4.2388702708   -1.1905114052   -2.2388225163
O        4.2928098614   -3.2722648889   -2.9995575490
F        3.6488381982    0.1502397233    2.3812430795
H       -2.3835153876    1.0454657782    0.7375041510
H       -0.3756424401    2.2009419844    1.6223543632
H       -2.1295588669   -1.1324432297   -0.4265157388
H        6.8291171167    1.9749401623   -0.2643956394
H        1.8282619086    1.2454603660    1.3499595696
H        0.0807261287   -2.1413338886   -0.7002585280
H        6.1360169961    0.5992847544   -2.1907745049
H        5.6523779732    1.7211212641    1.9074275487
H        3.6040526768   -4.2060786824   -0.7690384823
H        4.5876412915   -2.9766135372    0.0304970246
H        4.6018507573   -0.9749334234   -3.1583576599
30   

C       -1.3883054391    0.6303816442    0.6684342634
C       -0.2218460326    1.3520084782    0.9164630118
C       -1.2969222082   -0.6830131927    0.2135500040
C        5.9871165537    1.2652443923   -0.0644504928
C        1.0321794345    0.7632588111    0.7118254896
C       -0.0433015808   -1.2687769501    0.0110985057
C        5.6288853038    0.5164344969   -1.1815424086
C        5.2559187214    1.1277190552    1.1116156660
C        1.1572832009   -0.5583686788    0.2527167738
C        3.7284524726   -0.4144806634    0.0166424526
C        4.5319507410   -0.3479800454   -1.1462783616
C        4.1434907840    0.2849390881    1.1693195533
C        2.4754256581   -1.2336682763    0.0526186938
C        4.1432381007   -2.5223289794   -2.0948394245
C        3.7323961422   -3.1320832781   -0.7477994219
N        2.4839596408   -2.5162821026   -0.2460087572
N        4.3106682040   -1.1650821692   -2.2551506174
O        4.3575592589   -3.2261345580   -3.0694413254
F        3.4859946294    0.1475786422    2.3448119166
H       -2.3589214549    1.0871244198    0.8261506028
H       -0.2865278868    2.3762978880    1.2656485644
H       -2.1972695181   -1.2541270739    0.0171047019
H        6.8452123215    1.9283058365   -0.1030099733
H        1.8928856252    1.3894690655    0.8988861960
H       -0.0149179783   -2.2950594625   -0.3395322740
H        6.2308090438    0.5885058557   -2.0801229625
H        5.5480805375    1.6759654421    1.9994096390
H        3.5745252293   -4.2046225630   -0.8910531305
H        4.5450275409   -3.0100410218   -0.0260195615
H        4.7143404678   -0.9317745468   -3.1531535235
30   

C       -1.3666754652    0.6558655335    0.7264520775
C       -0.1966050983    1.4144007045    0.7282205198
C       -1.2970179206   -0.7120772410    0.4692624600
C        5.9774101194    1.2272845354    0.0311075599
C        1.0397534285    0.8075293991    0.4757963760
C       -0.0606965169   -1.3159278917    0.2182129364
C        5.6694266097    0.4891365188   -1.1077300227
C        5.1817346784    1.0958375887    1.1648332595
C        1.1405478513   -0.5688355882    0.2159807932
C        3.7055330177   -0.4373717280   -0.0122069439
C        4.5638132640   -0.3647567098   -1.1360101325
C        4.0597434467    0.2642999685    1.1603424737
C        2.4475223083   -1.2448981690   -0.0352086912
C        4.1704814314   -2.5062135555   -2.1634553984
C        3.6947346792   -3.1441375311   -0.8530102393
N        2.4432282886   -2.5174969382   -0.3735288024
N        4.3811215643   -1.1509839859   -2.2739576054
O        4.4066296392   -3.1859349460   -3.1500155945
F        3.3293372353    0.1457699400    2.2938345597
H       -2.3240178944    1.1262213485    0.9209568787
H       -0.2455320425    2.4800116718    0.9214090892
H       -2.2007815536   -1.3108618251    0.4642286269
H        6.8428555979    1.8817963810    0.0410448664
H        1.9088944292    1.4523310852    0.4651589885
H       -0.0443421121   -2.3835744359    0.0261719110
H        6.3155495510    0.5642407158   -1.9748278399
H        5.4284341462    1.6419975897    2.0676124087
H        3.5193111534   -4.2080823921   -1.0347825879
H        4.4830554425   -3.0626967454   -0.0992970635
H        4.8270607200   -0.9016412585   -3.1473337516
30   

C       -1.3429743344    0.6747019668    0.7788439232
C       -0.2022164608    1.4436071502    0.5455430594
C       -1.2602965270   -0.7161632343    0.7161044851
C        5.9605389929    1.1976761032    0.1148704074
C        1.0184729035    0.8235883441    0.2530448900
C       -0.0392795291   -1.3331217217    0.4242619790
C        5.6995578738    0.4684049275   -1.0410559673
C        5.1088831279    1.0719599661    1.2073482338
C        1.1291328790   -0.5746078033    0.1911146548
C        3.6845206585   -0.4559019296   -0.0397823521
C        4.5897519244   -0.3764184204   -1.1268094006
C        3.9819067307    0.2497284077    1.1470055118
C        2.4217998663   -1.2480046602   -0.1205837588
C        4.1846863897   -2.4796943129   -2.2377650514
C        3.6486950426   -3.1475974422   -0.9678257304
N        2.3993835065   -2.5080184041   -0.5008542004
N        4.4420520482   -1.1299931946   -2.2919320394
O        4.4346834499   -3.1314682583   -3.2396225296
F        3.1942200219    0.1433538768    2.2425923529
H       -2.2887788990    1.1545951868    1.0040253306
H       -0.2627907947    2.5252037877    0.5864822594
H       -2.1421461733   -1.3215648727    0.8925830317
H        6.8297525767    1.8450096849    0.1687058262
H        1.8735547014    1.4601679288    0.0585674417
H       -0.0039650403   -2.4166992744    0.3822248486
H        6.3835518721    0.5470978855   -1.8782782601
H        5.3141759665    1.6162896761    2.1215321147
H        3.4527898752   -4.1996630966   -1.1927589209
H        4.4146464398   -3.1136046023   -0.1879220339
H        4.9254154469   -0.8643401921   -3.1402510284
30   

C       -1.3258188519    0.6897532980    0.8275279890
C       -0.2425821046    1.4405038561    0.3661334098
C       -1.1988097009   -0.6934571428    0.9663569871
C        5.9463826883    1.1518969246    0.2131721523
C        0.9659650511    0.8097103227    0.0480803237
C        0.0102744933   -1.3213091381    0.6483071886
C        5.7239193696    0.4295147898   -0.9547458402
C        5.0471694365    1.0369087329    1.2675363118
C        1.1181926578   -0.5779453543    0.1932471059
C        3.6627337429   -0.4808333631   -0.0367872791
C        4.6087214025   -0.4018730302   -1.0896222888
C        3.9141332419    0.2282139909    1.1594327997
C        2.3944551000   -1.2527502402   -0.1713677642
C        4.1865383855   -2.4686315213   -2.2722605055
C        3.5941555782   -3.1580667296   -1.0407631077
N        2.3504091320   -2.5011039453   -0.5840933659
N        4.4905333104   -1.1281933761   -2.2756282355
O        4.4459793820   -3.0965850020   -3.2868097045
F        3.0802259063    0.1367988750    2.2216380704
H       -2.2627949081    1.1773229702    1.0722367915
H       -0.3394756343    2.5139143021    0.2496304184
H       -2.0374976997   -1.2837456485    1.3176779209
H        6.8199858250    1.7889925833    0.3046700247
H        1.7851464287    1.4159629748   -0.3224204766
H        0.0888487686   -2.3980525361    0.7563075037
H        6.4404176242    0.5064740630   -1.7644828358
H        5.2187320041    1.5799380479    2.1894051579
H        3.3764599449   -4.1967905148   -1.3044026558
H        4.3385516166   -3.1703025795   -0.2396771332
H        5.0080329190   -0.8527296123   -3.1003818017
30   

C       -1.3046329656    0.6989603036    0.8457332443
C       -0.3092787800    1.4099367666    0.1702007812
C       -1.0972394542   -0.6433394036    1.1725697452
C        5.9614732756    1.1062704617    0.2981797899
C        0.8932033564    0.7807096556   -0.1727417035
C        0.1057531409   -1.2697547023    0.8289734209
C        5.7649611873    0.4110740502   -0.8903529655
C        5.0254036983    0.9884174157    1.3191244953
C        1.1242359914   -0.5607883036    0.1655193635
C        3.6625071069   -0.4870004501   -0.0558214265
C        4.6411742700   -0.3982352455   -1.0784189893
C        3.8834515764    0.2011600594    1.1593805717
C        2.3878584588   -1.2329274708   -0.2481526963
C        4.2005238625   -2.4127238679   -2.3492408213
C        3.5593127732   -3.1334653413   -1.1618021480
N        2.3227951352   -2.4643636072   -0.7038322740
N        4.5443204960   -1.0836141087   -2.2907567381
O        4.4674125653   -3.0066837435   -3.3821256660
F        3.0153279792    0.1091610507    2.1937210738
H       -2.2372973201    1.1847197645    1.1097214380
H       -0.4707025812    2.4490640764   -0.0930931941
H       -1.8696282215   -1.2029321714    1.6878249157
H        6.8417093649    1.7268126684    0.4305445789
H        1.6502888449    1.3434265702   -0.7081067973
H        0.2526271743   -2.3160370299    1.0754767275
H        6.5073315531    0.4943559015   -1.6757739136
H        5.1741372043    1.5130832937    2.2554633547
H        3.3211012624   -4.1544525744   -1.4728005025
H        4.2840106001   -3.1986719001   -0.3453995034
H        5.0913878959   -0.7917867706   -3.0904439010
30   

C       -1.3150898757    0.7057048516    0.8560805177
C       -0.4309264292    1.3345403944   -0.0254430555
C       -0.9981886409   -0.5512242303    1.3786946906
C        5.9757530939    1.0336769667    0.4057142701
C        0.7711076543    0.7097294566   -0.3780236384
C        0.2041417595   -1.1732931383    1.0246650972
C        5.7914925552    0.3727485157   -0.8038405192
C        5.0139894984    0.9117912570    1.4016350758
C        1.1110176950   -0.5398070123    0.1575497092
C        3.6531758908   -0.5034982204   -0.0379993061
C        4.6554690674   -0.4071122101   -1.0374665743
C        3.8597385138    0.1531814474    1.1975257269
C        2.3687059663   -1.2163693691   -0.2797109710
C        4.1913361707   -2.3670104510   -2.3868406678
C        3.5085567109   -3.1124899849   -1.2390892575
N        2.2813702304   -2.4288238262   -0.7781079831
N        4.5695794676   -1.0511121216   -2.2733180462
O        4.4619407663   -2.9298616641   -3.4360290750
F        2.9683922948    0.0574813021    2.2113550008
H       -2.2476220259    1.1875025500    1.1276757086
H       -0.6791136045    2.3045664196   -0.4409378056
H       -1.6858782682   -1.0485632236    2.0531666939
H        6.8652584413    1.6321443911    0.5730249970
H        1.4443047257    1.2003684258   -1.0726897157
H        0.4385340240   -2.1561967307    1.4191453148
H        6.5523256976    0.4611703812   -1.5707950546
H        5.1515771869    1.4115509810    2.3531569400
H        3.2499379549   -4.1147918280   -1.5918133431
H        4.2156960062   -3.2267628518   -0.4127725879
H        5.1405717792   -0.7461989947   -3.0511086336
30   

C       -1.3380819658    0.7475586483    0.8333241962
C       -0.5734162611    1.2320261439   -0.2323595539
C       -0.9009375117   -0.3694988100    1.5512488146
C        5.9911152320    0.9683623335    0.5318685972
C        0.6306379848    0.6048018914   -0.5737384607
C        0.3028271484   -0.9947171823    1.2075533991
C        5.8052676022    0.3605434730   -0.7046401738
C        5.0193895350    0.8227410878    1.5144656656
C        1.0910485077   -0.4983622295    0.1556522339
C        3.6456737061   -0.5101658929    0.0090855299
C        4.6580371292   -0.3892652842   -0.9783584419
C        3.8538601731    0.0933528888    1.2712674545
C        2.3503728990   -1.1873814446   -0.2767086218
C        4.1722137920   -2.2801345901   -2.4165335645
C        3.4607073020   -3.0606910716   -1.3106843359
N        2.2426274868   -2.3703710579   -0.8363036042
N        4.5718734614   -0.9774289630   -2.2418927291
O        4.4438304051   -2.8014245009   -3.4867232205
F        2.9551129941   -0.0262796657    2.2750694860
H       -2.2719677897    1.2312068408    1.0968674834
H       -0.9163325394    2.0903118784   -0.7988958063
H       -1.4968249163   -0.7565936314    2.3699246979
H        6.8889472766    1.5446271794    0.7297759278
H        1.2109308249    0.9777419419   -1.4107739716
H        0.6309904305   -1.8717470184    1.7547294762
H        6.5732258534    0.4678736011   -1.4620049183
H        5.1576408089    1.2816588409    2.4862324953
H        3.1853938723   -4.0408201411   -1.7100140905
H        4.1547974651   -3.2255442890   -0.4818722067
H        5.1561357852   -0.6493651976   -3.0001606994
30   

C       -1.3592837556    0.7318281646    0.7412166762
C       -0.7068330249    0.9998997695   -0.4659974829
C       -0.8052418957   -0.1813208291    1.6432703335
C        6.0146301817    0.8814941506    0.6285562069
C        0.5047877718    0.3655113329   -0.7641132626
C        0.4053321267   -0.8158824626    1.3427803914
C        5.8049790741    0.3500781305   -0.6381855847
C        5.0630962831    0.6724412919    1.6186493277
C        1.0873620597   -0.5235980986    0.1491803092
C        3.6572194063   -0.5665734835    0.0614889492
C        4.6532723977   -0.3838355410   -0.9346528880
C        3.8929819900   -0.0423779866    1.3542806992
C        2.3549684202   -1.2225114471   -0.2563019269
C        4.1617313827   -2.1933386927   -2.4691870600
C        3.4562563070   -3.0332228651   -1.4038329731
N        2.2406256973   -2.3635777071   -0.8955477454
N        4.5483755475   -0.8970924539   -2.2291687171
O        4.4305494555   -2.6553702341   -3.5669670066
F        3.0214639760   -0.2253689363    2.3700711323
H       -2.2983179889    1.2220973897    0.9722644163
H       -1.1425821038    1.6946755065   -1.1749745839
H       -1.3169174342   -0.4050070960    2.5724220819
H        6.9154446565    1.4468000419    0.8437504524
H        0.9968043396    0.5658101768   -1.7098795516
H        0.8150293779   -1.5431783649    2.0349200470
H        6.5579894121    0.5049073018   -1.4023099035
H        5.2211190453    1.0701164107    2.6141007126
H        3.1785341943   -3.9905469908   -1.8536065792
H        4.1523900225   -3.2406758861   -0.5863816359
H        5.1221315489   -0.5236832679   -2.9743605928
30   

C       -1.3743742800    0.7201763803    0.6212146153
C       -0.8269817152    0.7176001980   -0.6641960624
C       -0.7135102603    0.0563805014    1.6581147222
C        6.0545229791    0.7935954929    0.6739234077
C        0.3906604434    0.0718642845   -0.9058593123
C        0.5029540910   -0.5923682989    1.4155291528
C        5.7823689064    0.3795632411   -0.6233673686
C        5.1635824637    0.4708193223    1.6887208010
C        1.0926369648   -0.5527874913    0.1381022851
C        3.6785600564   -0.6269425460    0.0971031487
C        4.6244265721   -0.3417356264   -0.9250507487
C        3.9881747222   -0.2346693609    1.4209643404
C        2.3643464633   -1.2594825517   -0.2413071938
C        4.1225818104   -2.0491006218   -2.5602321157
C        3.4617457923   -2.9719544702   -1.5345143546
N        2.2481124337   -2.3499953839   -0.9647123577
N        4.4683866079   -0.7556920073   -2.2495937887
O        4.3757728382   -2.4333233667   -3.6912322651
F        3.1949681279   -0.5433519267    2.4662303411
H       -2.3176095565    1.2205395349    0.8096398455
H       -1.3480043968    1.2110335705   -1.4768034183
H       -1.1510050278    0.0305481277    2.6496699197
H        6.9594266532    1.3505793630    0.8936423711
H        0.7993196018    0.0621568954   -1.9109262096
H        0.9566987354   -1.1507898886    2.2236203438
H        6.4926843774    0.6136666728   -1.4079359192
H        5.3757254522    0.7686150832    2.7087011381
H        3.1883092994   -3.9033556959   -2.0380899172
H        4.1799662785   -3.2167810764   -0.7470062404
H        5.0059825894   -0.3170754546   -2.9861488277
30   

C       -1.3457798938    0.7960250291    0.5082822802
C       -0.9576196906    0.4088691148   -0.7749736612
C       -0.5347624618    0.4817739595    1.6001697710
C        6.0158709934    0.6980365224    0.7981089852
C        0.2400330362   -0.2886128289   -0.9646328797
C        0.6642560507   -0.2163798208    1.4124874433
C        5.6760261199    0.4816799005   -0.5326810630
C        5.2211507933    0.1509174964    1.7997065612
C        1.0719711900   -0.6146682061    0.1226275039
C        3.6612515128   -0.7072596182    0.1432063242
C        4.5313101986   -0.2423404330   -0.8736555242
C        4.0626629600   -0.5657534859    1.4884966782
C        2.3452140741   -1.3322541737   -0.2156694625
C        4.0592068373   -1.8165792759   -2.6328584492
C        3.4896708992   -2.8690340039   -1.6722101793
N        2.2593781095   -2.3676770350   -1.0221634800
N        4.3262703513   -0.5284181173   -2.2246201685
O        4.2973457274   -2.0874788402   -3.7994218356
F        3.3865047243   -1.1568020089    2.4964912498
H       -2.2742328995    1.3360169268    0.6565539553
H       -1.5839601273    0.6481060056   -1.6269077448
H       -0.8365080620    0.7767872177    2.5988116304
H        6.9096385382    1.2591367077    1.0505428466
H        0.5238715484   -0.5773507163   -1.9715474193
H        1.2383364038   -0.4437213562    2.2957671668
H        6.3271463762    0.8617149829   -1.3114481020
H        5.5031922632    0.2697109752    2.8390676593
H        3.2544783558   -3.7687525458   -2.2475899978
H        4.2452997514   -3.1369885127   -0.9282465555
H        4.8088415204    0.0044115168   -2.9366848861
30   

C       -1.3582636951    0.8061164080    0.4889509656
C       -1.1130411054    0.1681754560   -0.7270749469
C       -0.3953808805    0.7619085555    1.4977192773
C        6.0116308822    0.6151561255    0.9010925919
C        0.0869787650   -0.5221218164   -0.9290982367
C        0.8067839233    0.0733051931    1.2972190931
C        5.6853279245    0.4838866322   -0.4452279206
C        5.1986966212    0.0181835996    1.8602519656
C        1.0590044750   -0.6080423121    0.0866607032
C        3.6489236996   -0.7110058632    0.1371393470
C        4.5360644802   -0.2040319425   -0.8410708067
C        4.0347398183   -0.6617200539    1.4921734583
C        2.3335954269   -1.3137094197   -0.2598973565
C        4.0788837205   -1.6964601596   -2.6696955273
C        3.5100353702   -2.7916064766   -1.7552701787
N        2.2687958886   -2.3284542929   -1.0962623437
N        4.3453789274   -0.4267303958   -2.2054296337
O        4.3231338900   -1.9182641743   -3.8453711601
F        3.3257696534   -1.3032871507    2.4492230990
H       -2.2887005093    1.3401945093    0.6459913367
H       -1.8517304893    0.2089189756   -1.5195660188
H       -0.5766420072    1.2685196963    2.4389156317
H        6.9099259896    1.1473680846    1.1964307938
H        0.2499312759   -0.9957029994   -1.8917539371
H        1.5206117022    0.0984950322    2.1053096259
H        6.3515827436    0.8982365920   -1.1930965159
H        5.4705164468    0.0688493898    2.9078688764
H        3.2886321966   -3.6700761442   -2.3677356715
H        4.2616287943   -3.0826250455   -1.0158935525
H        4.8346399325    0.1363932063   -2.8890248138
30   

C       -1.3836888261    0.7697880682    0.5317955127
C       -1.2454929584   -0.0564411190   -0.5830949237
C       -0.3050224955    0.9429276609    1.3986905930
C        6.0134945530    0.5398609468    0.9952448935
C       -0.0368606442   -0.7195874896   -0.8227335962
C        0.9053281812    0.2819213110    1.1601751110
C        5.7267372809    0.4464563254   -0.3634648237
C        5.1503681469   -0.0470416146    1.9160712166
C        1.0542852004   -0.5929591113    0.0599327243
C        3.6412978568   -0.7031096428    0.1279889030
C        4.5717431633   -0.1993474849   -0.8108607743
C        3.9791767643   -0.6827706791    1.4966308369
C        2.3300522376   -1.2797451729   -0.3125517803
C        4.1329486942   -1.6317041464   -2.6897797437
C        3.5281955735   -2.7392131699   -1.8149844252
N        2.2782586326   -2.2775961428   -1.1711259700
N        4.4159192394   -0.3817326401   -2.1851771650
O        4.3999352710   -1.8282510884   -3.8650281908
F        3.1996962717   -1.2942474936    2.4193033814
H       -2.3206155248    1.2830882421    0.7170010500
H       -2.0748843535   -0.1831909059   -1.2696913323
H       -0.4016992458    1.5997383343    2.2557777756
H        6.9172611251    1.0383864875    1.3300829288
H        0.0303901412   -1.3401562335   -1.7101258779
H        1.7139513770    0.4878486642    1.8457438730
H        6.4280985824    0.8571436033   -1.0806466093
H        5.3855248453   -0.0197309780    2.9734259544
H        3.3098963230   -3.5997843765   -2.4533957264
H        4.2591535247   -3.0581065910   -1.0665096268
H        4.9336742397    0.1893219285   -2.8406272044
30   

C       -1.3959364362    0.7308933549    0.5957828442
C       -1.3379368473   -0.2479745937   -0.3956908534
C       -0.2357910573    1.0821017187    1.2850093301
C        6.0054971342    0.4600394347    1.0702670199
C       -0.1262386659   -0.8839998042   -0.6885068288
C        0.9769444754    0.4480015846    0.9929684582
C        5.7684874541    0.3927556057   -0.2994978445
C        5.0854193938   -0.1021572959    1.9499715964
C        1.0523946150   -0.5748946119    0.0188859514
C        3.6319643123   -0.6998571357    0.0949870440
C        4.6115398997   -0.2088961934   -0.8008861658
C        3.9111388821   -0.6928471536    1.4777068158
C        2.3251406760   -1.2411842249   -0.3933222778
C        4.1878534743   -1.5711520868   -2.7363981398
C        3.5281727187   -2.6843158350   -1.9122794557
N        2.2747767620   -2.2100987367   -1.2848717980
N        4.4983251483   -0.3492009055   -2.1841569667
O        4.4826536862   -1.7406888291   -3.9092065178
F        3.0601349982   -1.2593828466    2.3651799092
H       -2.3351178943    1.2235349469    0.8212588797
H       -2.2331121104   -0.5152918636   -0.9457389923
H       -0.2715527104    1.8564977096    2.0428674904
H        6.9114563191    0.9241376527    1.4461835771
H       -0.1286518796   -1.6295123081   -1.4765720537
H        1.8500128075    0.7906411766    1.5311087291
H        6.5092234670    0.7914668283   -0.9830851369
H        5.2753325775   -0.0871795837    3.0166626807
H        3.3037915625   -3.5189365370   -2.5822436792
H        4.2300725319   -3.0461126645   -1.1555831253
H        5.0534781307    0.2243294302   -2.8059790292
30   

C       -1.3921573723    0.6951801331    0.6659554859
C       -1.3800389742   -0.4103956103   -0.1848335970
C       -0.1886338866    1.1980902994    1.1601926591
C        5.9903133496    0.3835189307    1.1511297396
C       -0.1686602618   -1.0188420997   -0.5330618207
C        1.0232108207    0.5912566917    0.8125740921
C        5.8114164942    0.3296507447   -0.2278511586
C        5.0107866954   -0.1430157946    1.9869928499
C        1.0564389666   -0.5485410046   -0.0233314457
C        3.6261316705   -0.6973844874    0.0657491627
C        4.6576979227   -0.2288468308   -0.7841514220
C        3.8387605136   -0.6908229897    1.4612232685
C        2.3243245580   -1.1945799769   -0.4736934371
C        4.2491095683   -1.5203841868   -2.7753721548
C        3.5208104989   -2.6291596267   -2.0080181926
N        2.2680658958   -2.1301732302   -1.3995551520
N        4.5946623904   -0.3326047981   -2.1739696302
O        4.5751473443   -1.6660660279   -3.9430941335
F        2.9232362912   -1.2123933430    2.3109448960
H       -2.3312225679    1.1664038635    0.9336929625
H       -2.3112601929   -0.7984569367   -0.5817554526
H       -0.1914830252    2.0672494935    1.8081354878
H        6.8944341610    0.8142451225    1.5688755035
H       -0.2046645634   -1.8703425858   -1.2042859985
H        1.9330444709    1.0388723104    1.1922653495
H        6.5936629375    0.7086275954   -0.8754939750
H        5.1504506542   -0.1317696120    3.0614840918
H        3.2853991957   -3.4329432325   -2.7110923659
H        4.1854343626   -3.0419860234   -1.2438547794
H        5.1931397633    0.2355587066   -2.7594827006
