22   

C        1.8246529914   -0.2110092585    0.1153638680
C        0.5378273240   -0.4647937824    0.5831221417
C        2.9237209953   -0.4453812918    0.9443041257
C        0.3549597651   -0.9575416204    1.8759708855
C        2.7602446371   -0.9282505904    2.2537354472
C        1.4487411563   -1.1964747662    2.7260969678
C        3.9531985060   -1.1290921218    3.0993932345
C        5.2694877430   -0.8026800157    2.8750549637
C        1.1969938931   -1.7575664623    4.1056371954
C        6.3746217888   -1.6108833429    2.2243155503
H        1.9730296900    0.1703549573   -0.8883592670
H       -0.3192866795   -0.2827246708   -0.0551769094
H        3.9188496860   -0.2388533372    0.5686545195
H       -0.6527449048   -1.1571233643    2.2214553528
H        3.7271837465   -1.2986148975    4.1443013590
H        5.7059885139   -0.3681734116    3.7681720181
H        1.7814254496   -2.6710249810    4.2535132029
H        1.4753673102   -1.0234514258    4.8676466808
H        0.1405938427   -2.0084268386    4.2400314231
H        7.1802931329   -1.8049829564    2.9388917280
H        5.9816188113   -2.5688135401    1.8703601294
H        6.7837597503   -1.0632083185    1.3704468793
22   

C        1.9192558545   -0.2841267983    0.1164034899
C        0.6178538881   -0.5043994378    0.5596596574
C        2.9928130280   -0.4828606004    0.9870132188
C        0.3948483090   -0.9275528664    1.8705392232
C        2.7888643338   -0.8920198415    2.3165916628
C        1.4621632116   -1.1263638728    2.7634753734
C        3.9509288606   -1.0579426601    3.2115149556
C        5.2683485942   -0.7942056483    2.9670551580
C        1.1686026020   -1.6287549500    4.1572847522
C        6.2419611261   -1.5944965357    2.1295795955
H        2.0987554311    0.0442762404   -0.9008628113
H       -0.2193433379   -0.3515426825   -0.1118744993
H        3.9979140869   -0.2997769894    0.6269890078
H       -0.6233750528   -1.1067072841    2.1957755930
H        3.7007274904   -1.1364460153    4.2619281669
H        5.7841089915   -0.4450029154    3.8552130551
H        1.7632289627   -2.5231507326    4.3683904318
H        1.4045638769   -0.8559341132    4.8947118951
H        0.1129969208   -1.8963147252    4.2628330507
H        7.0967585830   -1.9096150859    2.7356127000
H        5.7502775925   -2.4853192948    1.7266208954
H        6.6048941829   -0.9865294705    1.2958050735
22   

C        1.9925381711   -0.3589493871    0.1196746006
C        0.6818418054   -0.5519341184    0.5466291709
C        3.0472326035   -0.5091261813    1.0223943528
C        0.4305908112   -0.8976415720    1.8745907684
C        2.8154364435   -0.8377613234    2.3709119676
C        1.4781994875   -1.0424785298    2.8006050262
C        3.9496860461   -0.9540397934    3.3096488035
C        5.2718480682   -0.8033437466    3.0405424708
C        1.1552290628   -1.4805674223    4.2094968117
C        6.1010109956   -1.6096942927    2.0681300118
H        2.1940303876   -0.0876072954   -0.9102069458
H       -0.1404225961   -0.4386543407   -0.1507078002
H        4.0563160864   -0.3397719907    0.6691582522
H       -0.5942363368   -1.0615817085    2.1867906396
H        3.6905566838   -0.9455934423    4.3610419422
H        5.8579907867   -0.5181902121    3.9075425530
H        1.7648210790   -2.3476633283    4.4832131893
H        1.3493647920   -0.6659608886    4.9130697063
H        0.1044709624   -1.7727636256    4.2968782350
H        6.9733549956   -2.0327638188    2.5752610169
H        5.5078526323   -2.4294968937    1.6509167749
H        6.4455367565   -0.9709641329    1.2496418055
22   

C        2.0316621162   -0.4079746358    0.1279536917
C        0.7164945856   -0.5865274637    0.5450177037
C        3.0750716941   -0.5176860559    1.0492214537
C        0.4493559712   -0.8742260566    1.8830672758
C        2.8291929341   -0.7905430184    2.4091641409
C        1.4850750188   -0.9749030591    2.8282026970
C        3.9408906428   -0.8659347598    3.3788418925
C        5.2662531168   -0.8478981216    3.1106868506
C        1.1435044560   -1.3642832498    4.2470814840
C        5.9805488523   -1.6240643588    2.0322286914
H        2.2456721547   -0.1764304499   -0.9090994235
H       -0.0966737078   -0.5061094554   -0.1673884097
H        4.0825599061   -0.3463862395    0.6958383890
H       -0.5788888970   -1.0297450777    2.1881684766
H        3.6780871786   -0.7968753749    4.4272332821
H        5.8951693290   -0.6370167883    3.9688394765
H        1.7632894917   -2.2087441631    4.5653857235
H        1.3085293216   -0.5199340377    4.9222127306
H        0.0973686665   -1.6750892357    4.3256313488
H        6.8489394595   -2.1386313943    2.4544058053
H        5.3151393175   -2.3739241280    1.5928969186
H        6.3260412885   -0.9467652729    1.2457352282
22   

C        2.0519772359   -0.4375743184    0.1345783175
C        0.7368588272   -0.6097404138    0.5519539233
C        3.0928501048   -0.5137806859    1.0618484599
C        0.4671288727   -0.8539051113    1.8974942657
C        2.8468140678   -0.7478440385    2.4304152912
C        1.5000162446   -0.9184947599    2.8490078938
C        3.9458931223   -0.7887228665    3.4177773021
C        5.2640742623   -0.9128678013    3.1642209043
C        1.1532401061   -1.2717819852    4.2761951893
C        5.8994606687   -1.6321136966    2.0022226780
H        2.2681834999   -0.2338837679   -0.9078606290
H       -0.0740442414   -0.5564828003   -0.1655649820
H        4.0946647473   -0.3326794948    0.7005056126
H       -0.5613422346   -1.0055617176    2.2036748133
H        3.6849830406   -0.6754237022    4.4628835995
H        5.9152093153   -0.7782385639    4.0211094689
H        1.7834487306   -2.0968099588    4.6238539685
H        1.2985449485   -0.4057972045    4.9278536987
H        0.1120659859   -1.5988107984    4.3551480532
H        6.7625406097   -2.2072276933    2.3506823864
H        5.1923713577   -2.3286937335    1.5410712501
H        6.2460532138   -0.9133329983    1.2539416164
22   

C        2.0599674598   -0.4632700968    0.1377169345
C        0.7454523024   -0.6219115187    0.5602533069
C        3.1018335563   -0.5182926947    1.0652012082
C        0.4772827575   -0.8285561975    1.9118706694
C        2.8595696995   -0.7188581567    2.4407434345
C        1.5110873656   -0.8702223654    2.8638066949
C        3.9528406501   -0.7386497734    3.4356488000
C        5.2544893322   -0.9988925713    3.2117394484
C        1.1627554060   -1.1907942864    4.2984949257
C        5.8636128270   -1.6272916029    1.9867068803
H        2.2752121718   -0.2843995392   -0.9094734262
H       -0.0660337665   -0.5860437715   -0.1576866007
H        4.0988422079   -0.3371863317    0.6931049827
H       -0.5511552599   -0.9703650964    2.2227611177
H        3.6930346082   -0.5979877027    4.4777099020
H        5.9036457259   -0.9422532207    4.0787695706
H        1.7943614834   -2.0058906498    4.6665862869
H        1.3037718323   -0.3094622755    4.9300770806
H        0.1227338436   -1.5201502657    4.3829614255
H        6.7324058029   -2.2262307033    2.2757502672
H        5.1505068827   -2.2929815844    1.4908776187
H        6.2016172103   -0.8552277598    1.2893009582
22   

C        2.0547202692   -0.4887332028    0.1373502469
C        0.7409110662   -0.6231614027    0.5689073524
C        3.1003570338   -0.5326827443    1.0611076887
C        0.4772407828   -0.7930801406    1.9261206840
C        2.8641086041   -0.6975869135    2.4429809536
C        1.5148472228   -0.8220729594    2.8744643445
C        3.9580651193   -0.7077045078    3.4381311429
C        5.2327158947   -1.0947516037    3.2469790540
C        1.1677793450   -1.1099993455    4.3165263949
C        5.8574555298   -1.6106930191    1.9790487789
H        2.2668242217   -0.3363662465   -0.9146627716
H       -0.0733666734   -0.5968221050   -0.1462788590
H        4.0941092374   -0.3654364872    0.6758948945
H       -0.5511208394   -0.9176157600    2.2445000336
H        3.6989027190   -0.5512038347    4.4780277588
H        5.8640041055   -1.1151450865    4.1287070079
H        1.7932136260   -1.9230330000    4.6995535379
H        1.3175012823   -0.2172782604    4.9297285514
H        0.1255600111   -1.4297633381    4.4102897433
H        6.7459474570   -2.2003409626    2.2239052175
H        5.1662407018   -2.2644304719    1.4386016806
H        6.1713379887   -0.7793964240    1.3409714316
22   

C        2.0648264019   -0.4166900065    0.1449297997
C        0.7510923275   -0.4539829932    0.5969983707
C        3.0967868107   -0.8812558347    0.9622272711
C        0.4735530114   -0.9628377077    1.8640919746
C        2.8446591691   -1.4084809087    2.2465575105
C        1.4967400238   -1.4511607600    2.6955358036
C        3.9260596001   -1.9396228117    3.1032682177
C        5.2378426250   -1.6446831955    3.0370857067
C        1.1417383749   -1.9023726159    4.0929663912
C        5.8809450618   -0.4963587654    2.3060412440
H        2.2867277997   -0.0387898726   -0.8464752337
H       -0.0525084931   -0.0884382527   -0.0321570233
H        4.0918811217   -0.8785411998    0.5438221903
H       -0.5534739707   -0.9667219846    2.2099929440
H        3.6495671512   -2.5873679884    3.9261633676
H        5.8746059719   -2.1606574659    3.7474770163
H        1.2470008300   -2.9871668874    4.1805340728
H        1.7946144647   -1.4142145936    4.8238937580
H        0.1118320952   -1.6286621139    4.3412208489
H        6.2026094000   -0.8105701514    1.3087913178
H        5.1951404552    0.3527773321    2.2276174338
H        6.7647549160   -0.1605392374    2.8566599128
22   

C        2.0570310496   -0.4343573246    0.1323331555
C        0.7423497472   -0.4565520805    0.5845514058
C        3.0867091876   -0.8828172930    0.9616097832
C        0.4617152756   -0.9314060682    1.8646331180
C        2.8291081864   -1.3790193285    2.2561006250
C        1.4827049030   -1.4020112173    2.7087422903
C        3.9150337739   -1.8907034038    3.1183492119
C        5.2400121978   -1.6998802725    2.9590494615
C        1.1273882682   -1.8228916755    4.1153470999
C        5.9150569331   -0.5078940355    2.3307756808
H        2.2812216473   -0.0791398585   -0.8669031521
H       -0.0597072182   -0.1044705128   -0.0541794524
H        4.0872116285   -0.8862854240    0.5542052983
H       -0.5655907193   -0.9237830914    2.2097180027
H        3.6359441155   -2.5169607106    3.9568396036
H        5.8741618992   -2.2793147821    3.6212206040
H        1.2360001209   -2.9052444248    4.2267900467
H        1.7785446942   -1.3171941407    4.8357389856
H        0.0961134604   -1.5477036708    4.3561147752
H        6.2486116030   -0.7503707043    1.3175409230
H        5.2376998168    0.3511466169    2.2976564153
H        6.7913958500   -0.2252751404    2.9217454861
22   

C        2.0351776106   -0.4585972819    0.1086835011
C        0.7215829001   -0.4758157316    0.5665623635
C        3.0706834939   -0.8726669141    0.9487733833
C        0.4480949061   -0.9075952520    1.8639720271
C        2.8177360668   -1.3290617652    2.2572417952
C        1.4753490208   -1.3413641758    2.7199683611
C        3.9198344465   -1.7996901563    3.1208236859
C        5.2469771090   -1.7224261708    2.8729396210
C        1.1296964208   -1.7252204003    4.1393633362
C        5.9987333743   -0.5274471151    2.3412925180
H        2.2538322624   -0.1315212034   -0.9013188705
H       -0.0853312535   -0.1516477729   -0.0807688713
H        4.0762417608   -0.8716548412    0.5511604830
H       -0.5781796431   -0.8967065495    2.2121153746
H        3.6425887593   -2.3883317070    3.9866127536
H        5.8585277339   -2.3650742285    3.4969926592
H        1.2601542548   -2.8013864089    4.2836312131
H        1.7720272143   -1.1852594244    4.8425093248
H        0.0930169227   -1.4646165733    4.3729264465
H        6.3312506826   -0.7162136542    1.3163675692
H        5.3632591243    0.3636703537    2.3537245526
H        6.8783739082   -0.3323826953    2.9620162032
22   

C        1.9948738152   -0.4845158509    0.0796457481
C        0.6846615326   -0.4949695255    0.5494475737
C        3.0400434768   -0.8609584005    0.9256723498
C        0.4244695477   -0.8789790947    1.8651083905
C        2.7983672414   -1.2711830044    2.2498843775
C        1.4620180104   -1.2720133290    2.7282171414
C        3.9214517437   -1.6985684586    3.1090830210
C        5.2419759419   -1.7308743493    2.7963906330
C        1.1321173290   -1.6156783244    4.1614797754
C        6.1077973731   -0.5631689280    2.3833631955
H        2.2031756049   -0.1897512247   -0.9424124924
H       -0.1301410202   -0.2014927460   -0.1026227512
H        4.0484673014   -0.8580729522    0.5322336392
H       -0.5991897026   -0.8645248459    2.2208170065
H        3.6466320440   -2.2431402352    4.0038370448
H        5.8071826913   -2.4443379685    3.3863659476
H        1.2882000223   -2.6833479429    4.3403249124
H        1.7659095161   -1.0386109077    4.8424312482
H        0.0904666581   -1.3728209728    4.3918988621
H        6.4476099989   -0.6947378695    1.3519581155
H        5.5437072152    0.3722124598    2.4528966533
H        6.9832559583   -0.4922520734    3.0358033451
22   

C        1.9197144634   -0.5459968911    0.0374280186
C        0.6192159524   -0.5406958895    0.5347373943
C        2.9853877429   -0.8631412343    0.8822584733
C        0.3894052840   -0.8476098512    1.8764477752
C        2.7739010709   -1.1922928157    2.2327078900
C        1.4484994468   -1.1759533261    2.7404694555
C        3.9266234170   -1.5531267161    3.0810851179
C        5.2385905003   -1.6996196582    2.7315325726
C        1.1493474493   -1.4555988614    4.1942898057
C        6.2506737079   -0.6176219663    2.4240520013
H        2.1044916000   -0.3080658018   -1.0037955021
H       -0.2118849929   -0.2954062451   -0.1166658880
H        3.9896597033   -0.8691817612    0.4763439008
H       -0.6275706324   -0.8265622395    2.2505747121
H        3.6626738378   -2.0191925801    4.0219573584
H        5.7287487651   -2.4750941455    3.3104641272
H        1.3492971043   -2.5059422964    4.4256616042
H        1.7685723376   -0.8202249686    4.8353406847
H        0.1012031605   -1.2441836654    4.4260846801
H        6.6065663360   -0.7207673688    1.3948637280
H        5.7946143077    0.3703774975    2.5405052015
H        7.1057295421   -0.6913786251    3.1027989436
22   

C        1.8224792416   -0.6039525982   -0.0003629022
C        0.5373133919   -0.5836049664    0.5354168838
C        2.9155673755   -0.8706003785    0.8267285958
C        0.3503273857   -0.8241596666    1.8973526175
C        2.7473863716   -1.1288996072    2.1976765631
C        1.4379488420   -1.0977032934    2.7449453525
C        3.9329503842   -1.4362005917    3.0214303385
C        5.2415866369   -1.6451174488    2.6562640925
C        1.1829841401   -1.3220834144    4.2166713470
C        6.3814341860   -0.6558966561    2.5141390567
H        1.9740870615   -0.4164061036   -1.0571295699
H       -0.3152382128   -0.3792565190   -0.1022481690
H        3.9092973685   -0.8879291917    0.3951644186
H       -0.6557259830   -0.7967021994    2.2995511408
H        3.6964592039   -1.8236776912    4.0040746820
H        5.6505161158   -2.4938425695    3.1942499527
H        1.4259649818   -2.3537170755    4.4882683245
H        1.7939451891   -0.6379085209    4.8137202787
H        0.1331921624   -1.1396611815    4.4649314030
H        6.7862565424   -0.6969062601    1.4988217096
H        6.0241889733    0.3600405458    2.7080781636
H        7.1817188338   -0.8875182426    3.2235717740
