20

C      0.18918    0.67056    1.51931
C      0.88509    1.41979    2.47807
C      0.42626    1.34426    3.79061
C     -1.21908   -0.08514    3.12717
C      1.04820    2.13573    4.91867
C     -2.73246   -0.88665    4.77036
C      2.89040    2.27455    6.38342
N     -0.85912   -0.08453    1.83240
N     -0.63032    0.59051    4.11934
O      0.55097    3.13881    5.38224
O     -2.28060   -0.85453    3.40366
O      2.19743    1.57293    5.32381
Br     2.36943    2.50494    1.97392
H      0.49351    0.68622    0.47446
H     -3.59788   -1.54907    4.76459
H     -3.01477    0.11360    5.10766
H     -1.95171   -1.27990    5.42623
H      3.78615    1.68678    6.57887
H      2.25915    2.33110    7.27258
H      3.15039    3.28290    6.05461
