31

C      9.58246    3.73089   -2.07183
C      8.75497    4.87982   -2.08354
C      9.08061    2.51592   -1.64385
C      4.19212   -2.07954   -1.38480
C      7.43569    4.79817   -1.68327
C      3.29324   -1.97652   -2.44258
C      5.86675   -0.92066   -2.68290
C      5.13214    2.32939   -0.50122
C      7.73578    2.41334   -1.20832
C      5.48246   -1.53472   -1.48035
C      6.89476    3.56292   -1.24441
C      3.67793   -1.35286   -3.63300
C      4.97840   -0.83537   -3.75185
C      7.10907    1.20764   -0.72893
C      6.38946   -1.70903   -0.33233
N      5.57274    3.50769   -0.87972
N      5.83126    1.16744   -0.40247
N      7.45607   -1.09609    0.04866
N      7.87539    0.04653   -0.64287
Cl     2.52876   -1.24212   -4.93899
Cl     5.51523   -0.06348   -5.22384
H     10.61237    3.80399   -2.40988
H      9.16185    5.82930   -2.42134
H      9.72281    1.63993   -1.67238
H      3.88169   -2.57403   -0.46815
H      6.77845    5.66234   -1.69782
H      2.28983   -2.38139   -2.35883
H      6.86381   -0.51560   -2.79938
H      4.08181    2.25913   -0.22253
H      6.14618   -2.55169    0.31642
H      8.83908    0.23179   -0.39087
