20

C      1.84363   -1.23016   -0.08346
C      0.75587   -0.58900    0.52176
C      2.90285   -1.68389    0.70061
C      0.73287   -0.39415    1.90502
C      2.72779   -4.00149    5.65095
C      3.99190   -4.05159    6.19451
C      2.88602   -1.53083    2.09695
C      1.79446   -0.86809    2.66805
C      3.78447   -2.81414    4.12010
C      4.05038   -2.05136    2.87616
N      2.62171   -3.30088    4.48152
O      5.20203   -1.91329    2.47323
F      1.78336   -0.61137    3.99639
S      5.11048   -3.19974    5.19978
H      1.86504   -1.37158   -1.16001
H     -0.07171   -0.22822   -0.08285
H      3.76020   -2.17367    0.24874
H     -0.08328    0.12555    2.39733
H      1.84676   -4.46692    6.07949
H      4.30495   -4.53738    7.11001
