27

C      1.07468    2.86114    1.88260
C      1.26335    1.68104    1.67362
C      0.94890   -1.76221    0.26015
C      0.71042   -0.40726    0.48108
C      1.94447   -2.45318    0.95639
C      6.26537   -4.94922    3.21199
C      2.48826   -0.39765    2.13174
C      5.41204   -3.38948    4.83150
C      7.26899   -5.26513    4.12399
C      1.48714    0.28789    1.42731
C      5.32059   -3.97708    3.56666
C      2.71973   -1.76096    1.90164
C      6.46097   -3.80047    5.66373
C      4.23107   -3.65179    2.57562
N      7.37271   -4.69868    5.33917
N      3.74053   -2.37138    2.66614
O      3.85037   -4.49012    1.76321
Cl     6.58355   -3.08102    7.26400
H      0.90539    3.90148    2.06400
H      0.35076   -2.30004   -0.47030
H     -0.06476    0.12016   -0.06557
H      2.12663   -3.50284    0.77418
H      6.20137   -5.44023    2.24713
H      3.08397    0.14539    2.86183
H      4.68558   -2.67179    5.19824
H      8.02783   -6.00565    3.88099
H      4.22694   -1.74950    3.29901
