15

C      0.13745   -0.76032    0.87311
C      0.72278   -0.38129    3.19505
C     -0.65899   -1.82039    1.31109
C      0.83076   -0.04269    1.84778
C     -0.10902   -1.46728    3.50442
C      0.56868   -1.05492    6.22841
N     -0.78533   -2.17338    2.59544
F      0.21691    0.25123    6.18151
F      1.89508   -1.10931    5.96536
F      0.37757   -1.49035    7.48782
S     -0.43334   -2.11900    5.14414
Br     1.94240    1.42254    1.33717
H      0.20932   -0.51120   -0.17952
H      1.26065    0.17723    3.94860
H     -1.22227   -2.41422    0.59409
