20

C      1.63625   -1.74198   -0.19602
C      0.60922   -1.01506    0.40278
C      2.77465   -2.09239    0.53995
C     -0.43367    3.16851    4.40749
C      0.80169    3.52059    3.91208
C      0.70848   -0.60019    1.74095
C      2.86305   -1.70706    1.87116
C      1.84256   -0.96675    2.46895
C     -0.12542    1.42497    3.08843
C     -0.43543    0.17126    2.34273
N     -0.94942    1.99660    3.93137
O     -1.58777   -0.18764    2.16166
F      3.93584   -2.05362    2.61104
F      1.95862   -0.65069    3.77454
S      1.36119    2.32407    2.81039
H      1.55504   -2.04444   -1.23550
H     -0.28582   -0.75286   -0.15241
H      3.58665   -2.66615    0.10364
H     -1.00031    3.74949    5.12732
H      1.38745    4.40368    4.13321
