21

C      0.17183   -1.53951    1.01214
C      0.31754   -0.15366    0.96776
C      0.38199   -2.19171    2.22878
C      0.66865    0.51704    2.14995
C      1.38167   -3.55202    7.18577
C      0.73050   -1.43031    3.35624
C      1.80393   -1.58181    8.03625
C      0.94939   -2.12989    4.63337
N      0.87221   -0.09170    3.31742
N      1.65825   -3.71619    8.45169
N      1.92938   -2.46264    9.00261
N      1.26881   -1.49013    5.69903
N      1.45738   -2.20487    6.85373
S      2.02311    0.15677    8.12914
H     -0.09882   -2.10201    0.12275
H      0.16577    0.40304    0.04766
H      0.27844   -3.27106    2.30592
H      0.79024    1.59946    2.14851
H      1.13022   -4.34171    6.49375
H      0.82241   -3.21587    4.60932
H      2.32257    0.09457    9.44316
