31

C      0.86827    4.61484    0.59265
C      0.87543    5.99442    0.53209
C      2.45776   -2.44940   -0.14948
C      1.39497   -2.99474    0.52109
C      0.50170   -2.00346    1.04631
C     -0.19555    4.01245    1.28761
C      0.91553   -0.71319    0.76625
C     -0.17204    6.68885    1.16395
C     -0.26062    2.54159    1.38855
C      0.29124    0.53175    1.11710
C      0.24233   -4.60636    1.74308
C     -0.97991   -3.71060    1.62551
C     -0.24711    8.19259    1.15331
N     -1.17289    4.71628    1.87426
N     -1.15924    6.04595    1.81139
N      0.70111    1.74013    0.80852
N     -1.21321    1.88824    2.02160
O     -0.84817    0.53698    1.84341
O      1.17580   -4.33719    0.68080
O     -0.61521   -2.32047    1.74954
S      2.40214   -0.71804   -0.15833
H      1.63542    4.00043    0.13370
H      1.66285    6.53587    0.01366
H      3.26770   -2.98104   -0.63108
H      0.73662   -4.45406    2.71064
H     -0.03799   -5.65643    1.64151
H     -1.47672   -3.86410    0.66038
H     -1.68762   -3.90517    2.43315
H     -0.26534    8.57695    0.12759
H     -1.14999    8.52030    1.67084
H      0.62479    8.63042    1.65207
