35

C     -0.77093   -1.95523    0.13014
C      0.07749   -0.95864   -0.41047
C     -0.24634   -3.18361    0.47046
C      1.42478   -1.20162   -0.59009
C      1.67657   -4.73253    0.63332
C      5.58203    0.43357   -2.46131
C      7.52497   -0.92555   -1.97203
C      3.01321   -4.99578    0.45245
C      6.41221    1.47854   -2.87161
C      8.36089    0.11962   -2.36101
C      1.13617   -3.46213    0.29660
C      2.00476   -2.45183   -0.23056
C      3.40476   -2.73949   -0.41077
C      6.12739   -0.77594   -1.99333
C      3.88286   -4.00558   -0.07126
C      7.79717    1.31800   -2.80853
C      4.30791   -1.66897   -0.86448
C      5.62598   -4.98244   -1.33724
N      5.33816   -1.87223   -1.59965
O      5.21909   -4.31520   -0.13279
Cl     8.84665    2.63150   -3.32102
H     -1.82956   -1.75133    0.26587
H     -0.33802    0.00472   -0.69439
H     -0.88764   -3.96319    0.87519
H      2.03956   -0.42462   -1.03156
H      1.01788   -5.49410    1.04416
H      4.50416    0.54504   -2.54106
H      7.94318   -1.86767   -1.63018
H      3.44332   -5.95456    0.72807
H      5.98833    2.40525   -3.24586
H      9.43988    0.00602   -2.32619
H      4.06674   -0.65823   -0.50865
H      6.68745   -5.20664   -1.21458
H      5.48431   -4.32533   -2.19976
H      5.06800   -5.91823   -1.47138
