51

C     -1.75201   -1.99929    4.53397
C      1.50088   -0.79305    5.81593
C     -0.42104   -1.48030    4.53840
C      0.25370   -1.41557    5.77630
C      2.02419   -0.22835    4.64506
C      0.21680   -0.94355    3.37320
C      0.21748   -0.67212   -1.52376
C     -1.11190    1.83822   -0.61619
C      3.39869    1.99208   -2.76418
C      3.66922    1.24765   -4.05608
C     -1.66284    0.43709   -0.29201
C     -1.14329   -2.01478    0.14679
C      0.23462    1.78626   -1.36714
C     -1.34146   -1.96943    1.66684
C      0.39020   -0.39591    0.99110
C      2.72844    0.66083   -3.02986
C     -0.56061   -0.63441   -0.20287
C     -0.37738   -1.97948    7.02265
C      3.33835    0.51078    4.65014
C      1.24523    0.58820   -3.33166
N     -2.84545   -2.40390    4.60173
N      1.40373   -0.30845    3.46376
N     -0.31666   -1.01260    2.12080
N      0.41008    0.54410   -2.12725
O      0.62164   -1.72718   -2.01894
H      2.05017   -0.72339    6.74955
H     -1.84867    2.38062   -1.21589
H     -0.96926    2.41815    0.30077
H      4.18675    2.03247   -2.01774
H      2.79115    2.89156   -2.82225
H      3.23638    1.64918   -4.96899
H      4.63964    0.77950   -4.19006
H     -2.23514    0.46494    0.64061
H     -2.35956    0.12624   -1.07751
H     -0.42016   -2.78338   -0.13212
H     -2.07603   -2.22129   -0.38424
H      0.29993    2.61482   -2.07666
H      1.07022    1.91563   -0.66868
H     -2.34389   -1.62742    1.93841
H     -1.19096   -2.94890    2.12929
H      1.35992   -0.88125    0.82533
H      0.58415    0.65633    1.20189
H      3.09981   -0.19171   -2.46714
H     -1.31300   -1.45985    7.25442
H     -0.62866   -3.03691    6.89311
H      0.29438   -1.88219    7.87833
H      4.01840    0.07352    3.91261
H      3.17997    1.55591    4.36353
H      3.81584    0.48558    5.63258
H      1.02980   -0.31157   -3.91047
H      0.93585    1.45834   -3.92233
