42

C     -5.29441   -0.34941   -0.40828
C     -5.72680   -0.48266   -2.76485
C     -8.64749   -0.70937   -1.95457
C     -8.07214    0.86734   -0.22181
C     -3.93853   -0.58613   -0.64417
C     -4.37247   -0.71644   -2.99382
C    -10.00582   -0.48421   -1.72313
C     -9.42538    1.10612    0.02507
C     -6.21839   -0.29146   -1.46227
C     -7.65787   -0.04163   -1.21153
C     -3.44139   -0.77110   -1.94159
C    -10.37048    0.42264   -0.73318
C      0.21531   -3.78045   -2.23520
C     -0.87856    0.76666   -1.03146
C     -1.19289    1.22970   -2.48462
C     -1.02652   -0.77082   -1.05310
C     -1.41178   -0.07044   -3.28456
C     -1.96720   -1.07060   -2.23932
C     -1.89491   -2.55095   -2.69409
N     -0.56249   -3.01916   -3.05857
O     -0.07710   -4.11252   -1.09348
F    -11.69013    0.64725   -0.49947
H     -5.64095   -0.23759    0.61581
H     -6.40640   -0.41919   -3.61075
H     -8.35435   -1.43732   -2.70557
H     -7.32739    1.41635    0.34718
H     -3.27043   -0.63353    0.20847
H     -4.03838   -0.84670   -4.01988
H    -10.77345   -1.00591   -2.28653
H     -9.74972    1.81399    0.78176
H      1.16838   -4.07385   -2.71657
H      0.12517    1.06240   -0.71254
H     -1.58226    1.22025   -0.32767
H     -2.10478    1.83388   -2.50228
H     -0.39318    1.84090   -2.91297
H     -0.05872   -1.23030   -1.27065
H     -1.35552   -1.20179   -0.10569
H     -2.06068    0.07005   -4.15306
H     -0.44818   -0.44564   -3.65052
H     -2.55894   -2.70674   -3.55003
H     -2.24710   -3.19168   -1.88303
H     -0.21092   -2.82797   -3.98732
