42

C      4.03610    2.58702   -3.57905
C      6.16408    1.58702   -3.10715
C      6.91810    2.46674   -5.91525
C      5.58228    4.41897   -5.44313
C      3.48646    1.94181   -2.46680
C      5.61202    0.94562   -2.00285
C      7.47031    3.10113   -7.02969
C      6.12187    5.07018   -6.55395
C      5.38465    2.42606   -3.92400
C      5.96684    3.10968   -5.10325
C      4.25893    1.10479   -1.64935
C      7.05950    4.39596   -7.32960
C      0.69663   -0.84546    0.85865
C      5.30404   -0.76283    1.13555
C      4.29065   -1.80556    0.64016
C      4.62992    0.58789    0.82663
C      3.75066   -1.19044   -0.66074
C      3.71142    0.36152   -0.42931
C      2.26524    0.81618   -0.12656
N      1.64331    0.12589    0.99967
O      0.28593   -1.28900   -0.20687
F      7.59020    5.02135   -8.41323
H      3.39194    3.20125   -4.20284
H      7.22132    1.45696   -3.32348
H      7.21149    1.44517   -5.69134
H      4.87037    4.94816   -4.81629
H      2.43340    2.10016   -2.26307
H      6.25427    0.31095   -1.39817
H      8.19676    2.60436   -7.66557
H      5.83464    6.08435   -6.81442
H      0.32441   -1.20688    1.83660
H      5.55871   -0.87341    2.19469
H      6.23819   -0.85885    0.56923
H      4.73628   -2.79299    0.48309
H      3.48344   -1.92293    1.37107
H      4.02208    0.89419    1.68561
H      5.35018    1.39250    0.66251
H      4.43733   -1.41547   -1.48156
H      2.76977   -1.57790   -0.94604
H      1.62009    0.61866   -0.98348
H      2.24579    1.89294    0.07653
H      1.88441    0.40236    1.94196
