40

C      3.59751   -1.63321    2.17062
C      3.63923   -0.29591    1.76354
C      2.53133   -2.44229    1.76138
C      2.62394    0.22669    0.95613
C      1.51954   -1.91476    0.95504
C     -5.56438   -1.00199    0.77267
C     -5.00026    0.67177    2.47626
C     -4.49243   -0.58501    0.01256
C     -3.92976    1.08493    1.71190
C      1.54952   -0.57264    0.54268
C     -5.89013   -0.40756    2.06371
C     -3.65979    0.46754    0.46584
C      1.80836   -0.21310   -2.48360
C      3.30075   -0.82855   -4.20831
C      0.53518   -0.58548   -1.76730
C     -0.93030   -0.22884    0.27616
C      0.45755    0.00161   -0.34554
O     -6.86460   -0.79553    2.76662
O      2.47608    0.78650   -2.29255
O     -2.36765    0.48996   -1.84514
O     -1.76795    2.24959   -0.08667
O      2.13007   -1.13688   -3.43237
S     -2.22425    0.87756   -0.41597
H      4.38476   -2.04080    2.80071
H      4.46426    0.34194    2.07286
H      2.48550   -3.48295    2.07439
H      2.66713    1.26139    0.62772
H      0.69469   -2.55475    0.65008
H     -6.21510   -1.79911    0.41852
H     -5.21866    1.15515    3.42643
H     -4.28297   -1.04217   -0.95221
H     -3.29045    1.90030    2.04419
H      3.41144   -1.65438   -4.91247
H      4.18020   -0.75334   -3.56324
H      3.17105    0.11625   -4.74295
H      0.43821   -1.67488   -1.75451
H     -0.30451   -0.20216   -2.35933
H     -1.29634   -1.24951    0.13485
H     -0.91665   -0.00952    1.34629
H      0.61332    1.08108   -0.41765
