23   

C        5.7000039715    1.7602111707    0.0652227056
C        4.7727680901    2.0879640645   -0.9234350183
C        5.4856006553    0.6380481300    0.8651667048
C        3.6365486255    1.2927406435   -1.1114235844
C        4.3483118564   -0.1559179007    0.6749331586
C        3.3976863882    0.1482551491   -0.3220298855
C        1.3270256186   -0.6473561477   -1.5648455689
C        2.1983112263   -0.6870352723   -0.5130619146
C        0.1892132836   -1.5997405446   -1.3689845530
C        1.7411792988   -1.7138808513    0.5142638396
C        0.8295704565   -2.5754299330   -0.3729920425
H        6.5808483688    2.3748712349    0.2125598387
H        4.9310625426    2.9611689465   -1.5459937853
H        6.2016099073    0.3797359221    1.6370456734
H        2.9307852079    1.5781864594   -1.8808306193
H        4.2252210668   -1.0149433469    1.3201337322
H        1.4458911100   -0.0288865249   -2.4460908682
H       -0.1209079983   -2.0962875638   -2.2938260617
H       -0.6561098128   -1.0751767161   -0.9115324656
H        1.1673353709   -1.2168682397    1.3029589526
H        2.5466275941   -2.3177692259    0.9401962449
H        0.1018300814   -3.1675892597    0.1908368319
H        1.4692694567   -3.2584096714   -0.9424397401
23   

C        5.6766886708    1.7465984697    0.0665800009
C        4.6709808664    2.1522271004   -0.8120348682
C        5.5464499556    0.5399925126    0.7562734327
C        3.5390799002    1.3507647163   -0.9997260304
C        4.4132840883   -0.2600648333    0.5665035807
C        3.3879415249    0.1268787584   -0.3171525404
C        1.4071579702   -0.7590295620   -1.6285643279
C        2.1913202213   -0.7122278493   -0.5124870485
C        0.2402920888   -1.6766198540   -1.4355961219
C        1.6315449795   -1.6215807353    0.5725220574
C        0.7810503916   -2.5578781631   -0.2999662230
H        6.5544410665    2.3658300348    0.2132078046
H        4.7652630811    3.0897672827   -1.3479877272
H        6.3253040241    0.2204125285    1.4392221453
H        2.7649725993    1.6874531590   -1.6783270022
H        4.3485326848   -1.1933550311    1.1101167686
H        1.6157133582   -0.2263660270   -2.5489613619
H       -0.0032069148   -2.2577484030   -2.3306050514
H       -0.6296256900   -1.1015437038   -1.1016175640
H        1.0016021680   -1.0384021971    1.2517944748
H        2.3876804461   -2.1786474663    1.1316471410
H       -0.0007657355   -3.0847267575    0.2562321950
H        1.4530620069   -3.2993700802   -0.7454939435
23   

C        5.6713874201    1.7393838605    0.0768844367
C        4.6016246963    2.2067060683   -0.6903570648
C        5.6120876428    0.4647471584    0.6458425199
C        3.4763862531    1.3981967030   -0.8885834560
C        4.4852066813   -0.3415989486    0.4455145526
C        3.4032627972    0.1089207824   -0.3287415061
C        1.4996780908   -0.8735555798   -1.6799113820
C        2.2086362474   -0.7352390689   -0.5238182256
C        0.3045393340   -1.7528621416   -1.4790194076
C        1.5561086867   -1.5166423168    0.6072323220
C        0.7488554601   -2.5246000651   -0.2259551883
H        6.5438767376    2.3641032298    0.2314293762
H        4.6414002165    3.1965329530   -1.1305567384
H        6.4398137955    0.0987807393    1.2425589044
H        2.6478523789    1.7728015395   -1.4778267741
H        4.4580231958   -1.3292477690    0.8891617829
H        1.7819403942   -0.4277085823   -2.6267468366
H        0.1110435076   -2.4168449532   -2.3273690729
H       -0.5746450568   -1.1362650910   -1.2648267127
H        0.8933966720   -0.8566569091    1.1760436006
H        2.2678458306   -2.0142030112    1.2721775965
H       -0.0797731671   -2.9826094351    0.3233699893
H        1.4346825524   -3.3157508535   -0.5477948444
23   

C        5.6726519267    1.7300691571    0.0829607911
C        4.5442027562    2.2474947729   -0.5591748981
C        5.6769642345    0.4013058528    0.5167880850
C        3.4240556432    1.4345542003   -0.7686015091
C        4.5547444879   -0.4086393313    0.3051472418
C        3.4191384829    0.0935790363   -0.3472131755
C        1.5873641204   -0.9993638560   -1.7196673776
C        2.2247493325   -0.7562099141   -0.5408781989
C        0.3648663672   -1.8375405718   -1.5063029261
C        1.4884616942   -1.4034335867    0.6223556556
C        0.7137049391   -2.4808000214   -0.1533395718
H        6.5409871965    2.3582702451    0.2465131778
H        4.5346851076    3.2788822641   -0.8927437063
H        6.5489900099   -0.0025608628    1.0183630717
H        2.5478905909    1.8418761000   -1.2592788576
H        4.5644522458   -1.4373617569    0.6453918913
H        1.9361766892   -0.6503397536   -2.6848858535
H        0.2117982557   -2.5836160010   -2.2923857669
H       -0.5136747812   -1.1904456485   -1.4141518347
H        0.8067627713   -0.6779740942    1.0776167369
H        2.1545769232   -1.8352246208    1.3755143872
H       -0.1570133746   -2.8673582049    0.3857140678
H        1.4015717680   -3.3109237980   -0.3471253476
23   

C        5.6786810580    1.7211883607    0.0745162548
C        4.4947029117    2.2798189784   -0.4159896370
C        5.7375602432    0.3528944627    0.3556524444
C        3.3731114612    1.4688605389   -0.6258677611
C        4.6136024746   -0.4545407351    0.1436547722
C        3.4231676683    0.0917078029   -0.3552662704
C        1.6764439356   -1.1360910990   -1.7350642087
C        2.2263393877   -0.7610091579   -0.5477672208
C        0.4322624535   -1.9406553377   -1.5172723649
C        1.4050403639   -1.2720187919    0.6261761707
C        0.6766144976   -2.4280291278   -0.0784032057
H        6.5479968198    2.3478067598    0.2389210894
H        4.4436068503    3.3409774282   -0.6315075256
H        6.6526716943   -0.0832228073    0.7396933389
H        2.4539732212    1.9044743032   -0.9998461024
H        4.6608225362   -1.5140354729    0.3664950706
H        2.1005963066   -0.9014034275   -2.7047071230
H        0.3268322088   -2.7702284139   -2.2234209688
H       -0.4431104524   -1.2842845917   -1.5619863752
H        0.7003249427   -0.4992138870    0.9492062374
H        2.0164461265   -1.6168567307    1.4658749578
H       -0.2343423609   -2.7496900315    0.4362327193
H        1.3679404346   -3.2762239099   -0.1276871489
23   

C        5.6882159254    1.7088274943    0.0661809918
C        4.4587913632    2.3004169597   -0.2393963080
C        5.7850284519    0.3174739803    0.1655121640
C        3.3289180960    1.4996500358   -0.4439795983
C        4.6526506575   -0.4796638512   -0.0406414746
C        3.4149758020    0.1014554919   -0.3468766136
C        1.7771296760   -1.2719756834   -1.7288611562
C        2.2139742305   -0.7465139839   -0.5519983296
C        0.5176138387   -2.0564397804   -1.5272347756
C        1.2995216499   -1.1329829327    0.6001637133
C        0.6369837591   -2.3712018574   -0.0256486485
H        6.5640542831    2.3274097399    0.2263404862
H        4.3794686575    3.3787527342   -0.3169790604
H        6.7363352061   -0.1446850715    0.4032872534
H        2.3759573294    1.9590610996   -0.6789797777
H        4.7289410684   -1.5577902246    0.0387039495
H        2.2934122697   -1.1601435446   -2.6755129732
H        0.4725915319   -2.9632335709   -2.1384895953
H       -0.3497931087   -1.4173816996   -1.7230520052
H        0.5668831729   -0.3384855736    0.7737217587
H        1.8410236093   -1.3715092702    1.5209564885
H       -0.3146731463   -2.6417289384    0.4426716908
H        1.3312610510   -3.2113097799    0.0835371252
23   

C        5.6974964579    1.6997656277    0.0678969568
C        4.4409399645    2.3021643463   -0.0452180985
C        5.8121693280    0.3088708264   -0.0166977358
C        3.3015368006    1.5124576115   -0.2394701665
C        4.6702671965   -0.4774284211   -0.2115856931
C        3.4037715480    0.1132658971   -0.3173723764
C        1.8794542587   -1.3990619983   -1.6766119687
C        2.1991330858   -0.7226865353   -0.5393253872
C        0.6037194203   -2.1632799463   -1.5022776113
C        1.1828758464   -0.9847798282    0.5616839568
C        0.5829167037   -2.2967019723    0.0303520603
H        6.5809261368    2.3097708263    0.2190113130
H        4.3483041493    3.3804797008    0.0162051310
H        6.7851655182   -0.1614422059    0.0681262752
H        2.3288073586    1.9812219168   -0.3311432747
H        4.7618701632   -1.5551964370   -0.2786489559
H        2.4917022610   -1.4110395704   -2.5711524765
H        0.6128854839   -3.1364655286   -2.0030357395
H       -0.2394697221   -1.5585140981   -1.8521967399
H        0.4349061609   -0.1857350304    0.5724783725
H        1.6378414424   -1.1053822889    1.5498680237
H       -0.4080605632   -2.5208100727    0.4376513558
H        1.2647476698   -3.1095113118    0.3027059443
23   

C        5.6962327127    1.6879640943    0.0832879067
C        4.4270544783    2.2708860856    0.1408030643
C        5.8216203914    0.3187262785   -0.1691283794
C        3.2858875338    1.4831937795   -0.0508619532
C        4.6781502845   -0.4661202707   -0.3605632347
C        3.3980327187    0.1026655345   -0.2941189738
C        1.9617452034   -1.5216557420   -1.6081928431
C        2.1942385425   -0.7234049831   -0.5290747895
C        0.6626674302   -2.2520471734   -1.4648061960
C        1.0815261581   -0.8594184213    0.4997002853
C        0.5097504456   -2.2183640162    0.0652084499
H        6.5810677200    2.2967262310    0.2311648643
H        4.3258543348    3.3332849311    0.3310319393
H        6.8044847137   -0.1359097670   -0.2180370559
H        2.3041400142    1.9403614715   -0.0135773552
H        4.7809035906   -1.5265815173   -0.5585636184
H        2.6491010643   -1.6413065937   -2.4378490418
H        0.6978060997   -3.2738383839   -1.8555082366
H       -0.1370184252   -1.6820018625   -1.9492727014
H        0.3466364244   -0.0607924004    0.3576155739
H        1.4467034362   -0.8728041077    1.5314704357
H       -0.5155409803   -2.3910038341    0.4074306180
H        1.1539649886   -3.0002300448    0.4816898526
23   

C        5.6998642546    1.6832696840    0.0959293450
C        4.4271318070    2.2239246170    0.2976503913
C        5.8330821881    0.3509417002   -0.3044700031
C        3.2903226880    1.4312886120    0.1007393514
C        4.6942988500   -0.4394510555   -0.5007596350
C        3.4092259711    0.0860422064   -0.2939578817
C        2.0303974742   -1.6369332116   -1.5399147587
C        2.2093248496   -0.7377691223   -0.5305899238
C        0.7053151011   -2.3237811231   -1.4210440685
C        1.0170345369   -0.7455788117    0.4153739512
C        0.4445514804   -2.1319633123    0.0817970706
H        6.5811636049    2.2962712493    0.2473679390
H        4.3194025593    3.2582448465    0.6037538713
H        6.8187543248   -0.0711048266   -0.4639615399
H        2.3071776565    1.8613278845    0.2506039315
H        4.8084566123   -1.4714031406   -0.8105023707
H        2.7672513091   -1.8535607094   -2.3047151375
H        0.7411894174   -3.3804753220   -1.7039881949
H       -0.0422486785   -1.7905819160   -2.0177143354
H        0.3153245417    0.0458339628    0.1335466019
H        1.3009069735   -0.6568042435    1.4687825460
H       -0.6065255047   -2.2507051118    0.3633473920
H        1.0382028941   -2.8776958895    0.6216007640
23   

C        5.6957665448    1.6864314169    0.1002356422
C        4.4269911597    2.1640931567    0.4370853272
C        5.8339137567    0.4048955460   -0.4384822080
C        3.2988524127    1.3603006975    0.2353977367
C        4.7042806729   -0.3972691942   -0.6394915534
C        3.4209505649    0.0658961469   -0.3031922162
C        2.0803932267   -1.7493920939   -1.4652918305
C        2.2279696074   -0.7665864348   -0.5296377703
C        0.7308218919   -2.3906641191   -1.3693313575
C        0.9755226386   -0.6562886704    0.3280681760
C        0.3826399434   -2.0529660381    0.0884759643
H        6.5700282399    2.3085061616    0.2554381640
H        4.3151401586    3.1590580089    0.8526180309
H        6.8168949751    0.0306149501   -0.7007429982
H        2.3217757511    1.7500388170    0.4939964416
H        4.8304774349   -1.3902621793   -1.0529903324
H        2.8474259710   -2.0512713464   -2.1686096616
H        0.7531218462   -3.4698140871   -1.5507231058
H        0.0378651699   -1.8984516105   -2.0597647406
H        0.3183757304    0.1215126220   -0.0738068511
H        1.1898980999   -0.4765285769    1.3863272498
H       -0.6871875659   -2.1185325803    0.3105137540
H        0.9182954184   -2.7589581000    0.7323840088
23   

C        5.6947102351    1.6944870125    0.0996286731
C        4.4420016378    2.0987751757    0.5654490324
C        5.8244024259    0.4753481172   -0.5686759830
C        3.3210436618    1.2850893368    0.3627961628
C        4.7026071134   -0.3373340004   -0.7707952679
C        3.4325919138    0.0533148632   -0.3090337852
C        2.1246086241   -1.8513145851   -1.3733479769
C        2.2461631201   -0.7920407375   -0.5187855407
C        0.7528735990   -2.4478936156   -1.3107627616
C        0.9427880510   -0.5740788432    0.2370283480
C        0.3210448236   -1.9698221528    0.0825945726
H        6.5629337546    2.3246647680    0.2560637874
H        4.3365644789    3.0453532870    1.0831656395
H        6.7954046864    0.1569147543   -0.9304495626
H        2.3615435076    1.6294491034    0.7277218439
H        4.8315035946   -1.2808309698   -1.2853494574
H        2.9166706583   -2.2348103684   -2.0047712440
H        0.7540089615   -3.5393806403   -1.3922888913
H        0.1215463338   -2.0044922153   -2.0879109483
H        0.3394361706    0.1824514665   -0.2749114052
H        1.0873835501   -0.3116176099    1.2897346014
H       -0.7626259712   -1.9862946084    0.2359538077
H        0.7898097315   -2.6283934732    0.8218838916
23   

C        5.6966326013    1.7040460423    0.0909192472
C        4.4764698837    2.0273537964    0.6868259260
C        5.7967987112    0.5600859880   -0.7024796238
C        3.3582652788    1.2080694924    0.4905651557
C        4.6784587510   -0.2586393256   -0.8984138053
C        3.4395211056    0.0501590050   -0.3058373391
C        2.1688978009   -1.9405405418   -1.2601453872
C        2.2580617444   -0.8081433185   -0.4991277687
C        0.7812407487   -2.5016045095   -1.2473932365
C        0.9101780687   -0.4979625792    0.1382523226
C        0.2601897450   -1.8871802578    0.0578785162
H        6.5621828836    2.3389146081    0.2431766185
H        4.3939037559    2.9159592234    1.3022531488
H        6.7422755529    0.3049226556   -1.1673397423
H        2.4306475731    1.4995917565    0.9649254678
H        4.7885358059   -1.1392111472   -1.5174058671
H        2.9906268365   -2.3993086277   -1.7956771656
H        0.7592967066   -3.5957575141   -1.2278009270
H        0.2213518617   -2.1206793027   -2.1079129261
H        0.3672643186    0.2268512465   -0.4768344405
H        0.9769297742   -0.1591161130    1.1762647429
H       -0.8319634712   -1.8650189737    0.1275646755
H        0.6515388879   -2.4866162761    0.8870629358
23   

C        5.7164753060    1.7159928430    0.0826736619
C        4.5492212078    1.9500214120    0.8117170689
C        5.7607641707    0.6626705067   -0.8320885026
C        3.4279244986    1.1318844830    0.6278450680
C        4.6395812996   -0.1549100137   -1.0154468950
C        3.4543747442    0.0641956737   -0.2890751920
C        2.2240235595   -1.9976766678   -1.1291211374
C        2.2742189628   -0.7995502354   -0.4736592417
C        0.8304801200   -2.5419233011   -1.1694242947
C        0.8901452267   -0.4153842120    0.0318861634
C        0.2218101097   -1.7987879639    0.0266857534
H        6.5842538105    2.3499112859    0.2259456642
H        4.5108436690    2.7672189079    1.5229925203
H        6.6641599801    0.4782352442   -1.4021607888
H        2.5469704881    1.3496164672    1.2156750301
H        4.6994109318   -0.9602103879   -1.7361272053
H        3.0796865661   -2.5121322195   -1.5490579495
H        0.7888463320   -3.6287491794   -1.0463334194
H        0.3440995233   -2.2412928568   -2.1032531258
H        0.4087107668    0.2570174244   -0.6853690796
H        0.8763091678    0.0131645071    1.0372498678
H       -0.8718249895   -1.7570933602    0.0070815230
H        0.5349165714   -2.3223570762    0.9365122000
23   

C        5.7118976240    1.7121991678    0.0766811641
C        4.6054937867    1.8531696599    0.9172293662
C        5.6921554665    0.7545579745   -0.9395782586
C        3.4807989648    1.0381480536    0.7413303565
C        4.5669263832   -0.0595838105   -1.1139882679
C        3.4431219064    0.0702795317   -0.2797042664
C        2.2558960233   -2.0535591356   -0.9952803784
C        2.2651530760   -0.7983991961   -0.4587912149
C        0.8650233171   -2.6009493591   -1.0760825551
C        0.8517030630   -0.3605040485   -0.1013692837
C        0.1783751338   -1.7384701037   -0.0069849022
H        6.5830190626    2.3429595113    0.2134239588
H        4.6184488109    2.5928709971    1.7095941627
H        6.5484437108    0.6420618542   -1.5947339552
H        2.6448112863    1.1632981143    1.4166938352
H        4.5669122763   -0.7921816092   -1.9117030481
H        3.1419069453   -2.6003272495   -1.2958674419
H        0.8086455331   -3.6693710967   -0.8451191749
H        0.4462687895   -2.3988291865   -2.0674432550
H        0.4301376015    0.2264813461   -0.9236016787
H        0.7707173072    0.1855117786    0.8419770146
H       -0.9110120714   -1.7013394138   -0.1070757949
H        0.4251527667   -2.1631944500    0.9720986954
23   

C        5.7102573714    1.7097853043    0.0786288944
C        4.6683543673    1.7506771123    1.0088847051
C        5.6256653020    0.8521297349   -1.0213793138
C        3.5426793145    0.9364979462    0.8367961046
C        4.4989253844    0.0387577207   -1.1909843867
C        3.4396109017    0.0748100277   -0.2706976421
C        2.2809289214   -2.1018315882   -0.8545086402
C        2.2654581360   -0.8032193318   -0.4396165551
C        0.8917700100   -2.6474736406   -0.9747090185
C        0.8376129369   -0.3191486278   -0.2340058953
C        0.1431671114   -1.6772055300   -0.0466897813
H        6.5827103491    2.3395331336    0.2114448553
H        4.7329037522    2.4104372736    1.8666074223
H        6.4329893236    0.8159741607   -1.7438963287
H        2.7488589068    0.9691193419    1.5728864051
H        4.4422656050   -0.6220425514   -2.0477995672
H        3.1830127341   -2.6725606502   -1.0427756455
H        0.8071917142   -3.6868331332   -0.6421490103
H        0.5435358553   -2.5445858526   -2.0077515276
H        0.4843390239    0.1810870189   -1.1413525702
H        0.7095818121    0.3287860920    0.6378475567
H       -0.9363402957   -1.6452602566   -0.2250134585
H        0.3177813817   -2.0013018820    0.9849794610
23   

C        5.7080475589    1.7093104293    0.0828041532
C        4.7419108126    1.6383706296    1.0905448700
C        5.5476851969    0.9624672854   -1.0880244828
C        3.6157112069    0.8238209809    0.9242837420
C        4.4202852779    0.1484859621   -1.2510662069
C        3.4370423665    0.0768424907   -0.2538317657
C        2.2890256205   -2.1396113613   -0.7003019909
C        2.2632693699   -0.8078743272   -0.4153209700
C        0.9027048698   -2.6802911221   -0.8684984575
C        0.8345858116   -0.2877179694   -0.3678701500
C        0.1042844945   -1.6134470787   -0.1003265162
H        6.5809831026    2.3394868935    0.2102951470
H        4.8656469042    2.2114952133    2.0023231775
H        6.2969204656    1.0122179122   -1.8698688236
H        2.8743660487    0.7647152191    1.7123545348
H        4.3019285442   -0.4307723398   -2.1592567167
H        3.1949557871   -2.7309215130   -0.7695476976
H        0.7757433527   -3.6799750103   -0.4412949717
H        0.6330301190   -2.6786244687   -1.9297811618
H        0.5589167891    0.1246730777   -1.3436824176
H        0.6635198142    0.4461258066    0.4256498001
H       -0.9583379887   -1.5884588516   -0.3617875098
H        0.1961433580   -1.8344727377    0.9685709973
23   

C        5.7069290578    1.7081679511    0.0888760434
C        4.8291863355    1.5055781841    1.1580362013
C        5.4612525326    1.0878991536   -1.1398789094
C        3.7061961241    0.6858448357    0.9954004053
C        4.3372212913    0.2683407435   -1.2984547386
C        3.4445102499    0.0644123029   -0.2375125344
C        2.2777259311   -2.1741669985   -0.5293904417
C        2.2654146535   -0.8187333144   -0.4041561714
C        0.8937089626   -2.7039255399   -0.7451380222
C        0.8530743617   -0.2675306500   -0.5254935841
C        0.0687382783   -1.5404393257   -0.1680212233
H        6.5769802118    2.3430028884    0.2129138542
H        5.0182861931    1.9815799896    2.1134333837
H        6.1412377375    1.2405668519   -1.9701941088
H        3.0293937475    0.5258010979    1.8264957002
H        4.1504407319   -0.2133263347   -2.2511163009
H        3.1703035731   -2.7850116823   -0.4560369081
H        0.7062654738   -3.6454592392   -0.2194575950
H        0.7064481905   -2.8187647752   -1.8179078695
H        0.6621124245    0.0370324736   -1.5594068557
H        0.6478902579    0.5549316753    0.1668146839
H       -0.9699587325   -1.5259084970   -0.5130639530
H        0.0730875095   -1.6388112767    0.9229016220
23   

C        5.7076549801    1.7143763396    0.0998449575
C        4.9332281798    1.3507959794    1.2056500075
C        5.3667724724    1.2452108484   -1.1724371189
C        3.8195270993    0.5196815908    1.0366584415
C        4.2524011708    0.4136894582   -1.3367532016
C        3.4681396699    0.0426152271   -0.2364538470
C        2.2543581878   -2.1909835875   -0.3551129173
C        2.2821843361   -0.8317888254   -0.4169077549
C        0.8711598233   -2.7076317249   -0.6045378582
C        0.9008259448   -0.2623437947   -0.7007623089
C        0.0502639031   -1.4577799023   -0.2411739635
H        6.5699809130    2.3587581855    0.2285086766
H        5.1939934504    1.7125110789    2.1937189218
H        5.9644414952    1.5255284583   -2.0322791490
H        3.2189089806    0.2392798992    1.8940301224
H        3.9891362467    0.0520731272   -2.3238506415
H        3.1147822298   -2.8085090866   -0.1237220264
H        0.6138935350   -3.5685486389    0.0204248903
H        0.7556198630   -2.9542836834   -1.6651671692
H        0.7866320911   -0.0864628221   -1.7750667085
H        0.6825121334    0.6468423191   -0.1318153467
H       -0.9614895757   -1.4609765070   -0.6589080498
H       -0.0228623790   -1.4141756006    0.8508318829
23   

C        5.6952039547    1.7204547868    0.1125924799
C        5.0283489598    1.1930279615    1.2223411531
C        5.2568756912    1.4042074777   -1.1768126683
C        3.9263489223    0.3491941337    1.0401660595
C        4.1545989305    0.5593483756   -1.3541526793
C        3.4830149147    0.0170012399   -0.2500041438
C        2.2156160515   -2.1860269938   -0.1936367179
C        2.2960650298   -0.8501953583   -0.4424731742
C        0.8358371488   -2.6976550124   -0.4700876957
C        0.9529046346   -0.2895329777   -0.8851059800
C        0.0360891230   -1.3908395476   -0.3282698823
H        6.5481152790    2.3751555842    0.2515282567
H        5.3622246743    1.4391090435    2.2238828275
H        5.7687820377    1.8145042883   -2.0397867162
H        3.4059325862   -0.0532429050    1.9013626954
H        3.8141894127    0.3198664433   -2.3547198997
H        3.0328489415   -2.7845860418    0.1924129194
H        0.5096484202   -3.4625900311    0.2415370237
H        0.7818586415   -3.0781357521   -1.4955008477
H        0.9082699997   -0.2555166930   -1.9782181665
H        0.7318448002    0.6927077298   -0.4556838067
H       -0.9475808669   -1.4244528463   -0.8072414671
H       -0.1023857982   -1.2001111385    0.7414032553
23   

C        5.6866610159    1.7274126083    0.1228401390
C        5.1242538748    1.0570958466    1.2129133668
C        5.1474464798    1.5513405010   -1.1548352982
C        4.0265358129    0.2095543460    1.0225660558
C        4.0498157264    0.7024180375   -1.3411669594
C        3.4840031792    0.0134044768   -0.2588623392
C        2.1737955215   -2.1484942287   -0.0572687222
C        2.3008388837   -0.8513616009   -0.4529803963
C        0.8051894667   -2.6710302278   -0.3663793520
C        0.9990084558   -0.3301332469   -1.0435278310
C        0.0254192298   -1.3465280817   -0.4257403938
H        6.5362749122    2.3849380199    0.2684772346
H        5.5353864610    1.1958196698    2.2063114148
H        5.5775853364    2.0736477291   -2.0017660039
H        3.5867036036   -0.3003299585    1.8716160161
H        3.6327349177    0.5734244809   -2.3329510932
H        2.9484377041   -2.7092203432    0.4532264506
H        0.4179763615   -3.3457922427    0.4034994454
H        0.8102507320   -3.1647595272   -1.3437964412
H        1.0237988766   -0.4230813448   -2.1338473768
H        0.7707577197    0.6981537469   -0.7457978925
H       -0.9263700359   -1.4215213403   -0.9611018756
H       -0.1762494568   -1.0322729941    0.6040028772
23   

C        5.6791240482    1.7308084739    0.1299979502
C        5.2140489880    0.9462453295    1.1886838748
C        5.0406800187    1.6704298394   -1.1116519751
C        4.1142715815    0.1004074410    1.0029612280
C        3.9412293926    0.8231543565   -1.2942997091
C        3.4691876097    0.0196370864   -0.2447253227
C        2.1207455051   -2.1023965263    0.0732743289
C        2.2924859941   -0.8486042713   -0.4338548388
C        0.7717342643   -2.6464407355   -0.2815845875
C        1.0423499095   -0.3878491906   -1.1694172031
C        0.0143095789   -1.3308727549   -0.5251179144
H        6.5305298351    2.3867299570    0.2723722647
H        5.7025732419    0.9947588461    2.1551749958
H        5.3959731732    2.2807012675   -1.9341210713
H        3.7533687739   -0.4957215264    1.8325859412
H        3.4525116106    0.7852774893   -2.2605724039
H        2.8495122686   -2.6196726617    0.6865730592
H        0.3227264892   -3.2408439473    0.5203101019
H        0.8405763572   -3.2332557870   -1.2035699438
H        1.1451838925   -0.5933742493   -2.2396242577
H        0.8031050790    0.6662390259   -0.9967270971
H       -0.8983872340   -1.4532100873   -1.1168518421
H       -0.2548405075   -0.9148144698    0.4518071826
23   

C        5.7053890838    1.7361097297    0.0561663025
C        5.0121521721    1.7604498624   -1.1560066111
C        5.2388710382    0.9408607739    1.1052956464
C        3.8531983778    0.9920259600   -1.3164087780
C        4.0793388576    0.1735472879    0.9425378737
C        3.3636531262    0.1897129285   -0.2672796349
C        1.1060796090   -0.3840158248   -1.2742334643
C        2.1527460967   -0.6308468774   -0.4338707671
C        0.0716524153   -1.4625527276   -1.1820705053
C        1.9406126267   -1.9410672215    0.3108802689
C        0.9369048139   -2.6106624453   -0.6399227245
H        6.6031903916    2.3307469380    0.1816854817
H        5.3730965263    2.3727356447   -1.9745063337
H        5.7748365035    0.9177993445    2.0472838891
H        3.3341622525    1.0143162265   -2.2667160128
H        3.7316741243   -0.4342153602    1.7690960039
H        1.0415512976    0.4641908576   -1.9454585124
H       -0.3830472628   -1.7065188823   -2.1473151405
H       -0.6965281154   -1.1767848611   -0.4558555511
H        1.4836556272   -1.7435146187    1.2858074030
H        2.8569183186   -2.5294583043    0.4220964741
H        0.3580001876   -3.4128203761   -0.1713700209
H        1.5006436653   -3.0300591297   -1.4803288952
23   

C        5.7041759853    1.7435234279    0.0606055637
C        4.9430441402    1.8737048708   -1.1018906652
C        5.3132040731    0.8334915690    1.0438345656
C        3.7936892227    1.0947467247   -1.2794182368
C        4.1632556861    0.0556860371    0.8643857688
C        3.3793782981    0.1687438242   -0.3003233518
C        1.1697807059   -0.4687914370   -1.3866713513
C        2.1709597129   -0.6530664534   -0.4754842674
C        0.1026816446   -1.5088867634   -1.2416237150
C        1.8821376580   -1.8757538466    0.3841812108
C        0.9060430343   -2.6149164202   -0.5429369498
H        6.5945051072    2.3463961482    0.1993763540
H        5.2429776685    2.5781404213   -1.8693078257
H        5.8999776439    0.7298257439    1.9494335962
H        3.2258674732    1.2109177456   -2.1936032669
H        3.8822738932   -0.6349087635    1.6496144296
H        1.1487773560    0.3117067067   -2.1373735606
H       -0.3097898535   -1.8390400700   -2.2001920105
H       -0.6926398363   -1.1334926804   -0.5891760061
H        1.3862580118   -1.5687362647    1.3106195781
H        2.7703796829   -2.4785408684    0.5978612838
H        0.2820790527   -3.3504930518   -0.0255090277
H        1.4969758873   -3.1318751848   -1.3068405930
23   

C        5.6942941384    1.7499712826    0.0641457401
C        4.8542906316    1.9846062943   -1.0241078700
C        5.3886118858    0.7274359744    0.9619914923
C        3.7135819957    1.1960431672   -1.2138379133
C        4.2471290059   -0.0599003916    0.7702994957
C        3.3840991549    0.1506362763   -0.3256557798
C        1.2336871137   -0.5614678470   -1.4899334491
C        2.1803592564   -0.6780998488   -0.5108310367
C        0.1310736834   -1.5570690701   -1.3065559516
C        1.8152727150   -1.8086268234    0.4413892663
C        0.8611418718   -2.6071632281   -0.4592346419
H        6.5781478015    2.3600060636    0.2126660980
H        5.0848190186    2.7796087835   -1.7240736628
H        6.0354462280    0.5430831174    1.8121710683
H        3.0827378685    1.4058819697   -2.0675624288
H        4.0439014505   -0.8353317658    1.4970274473
H        1.2700727638    0.1423776720   -2.3120551824
H       -0.2374118136   -1.9702473373   -2.2507705216
H       -0.6876967889   -1.1005331292   -0.7406488507
H        1.2888401060   -1.4043418005    1.3119321757
H        2.6674689454   -2.4219047396    0.7488388096
H        0.1882578334   -3.2700946729    0.0938464305
H        1.4719903495   -3.2143113238   -1.1361079351
