29   

C        3.0827047035   -2.8218011845    0.6819738810
C        2.4555298274   -1.6311271682    0.3062527883
C        2.8675347387   -3.3458170088    1.9593236256
C        1.6120169260   -0.9685595554    1.2051199330
C        2.0310044481   -2.6771599768    2.8600966192
C       -0.1577352818   -4.4163127480    5.7023178043
C       -0.0377500654   -5.6847699090    5.1286969015
C       -1.3789057984   -3.6781590097    3.7571438558
C        1.3909331718   -1.4815425091    2.4939293585
C       -0.8177529489   -3.3955045310    5.0108754834
C       -0.5735379291   -5.9593708619    3.8638451096
C       -1.2571856746   -4.9434841505    3.1714930003
C        0.5091501165   -0.7873169015    3.4275816395
C        0.3878060838   -0.8933446838    4.8032310948
O       -2.2147228188   -1.0958497929    5.3467342029
O       -0.6358571274   -1.7070759614    7.1429238494
S       -0.9261336337   -1.7117408648    5.7003690675
Cl      -0.3813881355   -7.5553056556    3.1716822689
Cl      -1.9480662615   -5.2291995727    1.5886665043
H        3.7341609874   -3.3369924730   -0.0152377815
H        2.6231573588   -1.2195581320   -0.6827763955
H        3.3489761795   -4.2717358802    2.2530063346
H        1.1348126497   -0.0449411024    0.8963356288
H        1.8742838606   -3.0977874466    3.8467739660
H        0.2668563031   -4.2216929800    6.6844435722
H        0.4795126217   -6.4709175800    5.6661115246
H       -1.9104840206   -2.9003007372    3.2159578230
H       -0.1567640055   -0.0574897512    2.9776204280
H        1.1757322239   -0.5076385381    5.4304649123
29   

C        2.8590999882   -3.1018711766    0.8812202681
C        2.1717174191   -1.9876174945    0.3940679151
C        2.8006827197   -3.4115554307    2.2421196319
C        1.4214226000   -1.1898120585    1.2652001321
C        2.0565985693   -2.6081252288    3.1130912321
C       -0.0688316780   -4.3959110463    5.5514013801
C        0.1165882342   -5.6109788493    4.8865677630
C       -1.2398877816   -3.5466513016    3.6210032008
C        1.3501342919   -1.4909951026    2.6357523453
C       -0.7338041147   -3.3440531781    4.9132761289
C       -0.3570728118   -5.8005206261    3.5818476309
C       -1.0493368139   -4.7559345776    2.9432827339
C        0.5415697750   -0.6668667387    3.5329816962
C        0.3628656861   -0.7591282830    4.8918645275
O       -2.2272558256   -1.1359430493    5.4094045188
O       -0.6265104959   -1.8002045488    7.1584499956
S       -0.9112073709   -1.7173103522    5.7170195953
Cl      -0.0762956889   -7.3270241376    2.7733991483
Cl      -1.6611602499   -4.9340084321    1.3129161731
H        3.4361502475   -3.7235046904    0.2055832225
H        2.2177048204   -1.7422228788   -0.6610816749
H        3.3314756599   -4.2762415570    2.6239625233
H        0.8911489454   -0.3322919467    0.8658557617
H        2.0251563331   -2.8634843565    4.1657713856
H        0.3117849969   -4.2653235890    6.5616825416
H        0.6393473160   -6.4205053058    5.3821285599
H       -1.7747146984   -2.7452639636    3.1191712111
H        0.0259082047    0.1667819512    3.0667267629
H        0.9930542520   -0.1869662304    5.5544700842
29   

C        2.7120479556   -3.3433910178    1.1797976844
C        1.8928610499   -2.3834991503    0.5806248489
C        2.8499325414   -3.3666488170    2.5695407850
C        1.2058014067   -1.4549777044    1.3707052904
C        2.1639916597   -2.4363439806    3.3579084228
C        0.0648481591   -4.3430305971    5.2749380199
C        0.2754368594   -5.4850508860    4.4977274148
C       -1.2184223814   -3.3827337138    3.4726377101
C        1.3233561206   -1.4752888117    2.7703028578
C       -0.6666659469   -3.2694273039    4.7570658547
C       -0.2374600156   -5.5786886351    3.1975453803
C       -1.0001420833   -4.5158494369    2.6811960289
C        0.5569883417   -0.5315974344    3.5915111066
C        0.3097579057   -0.6052979790    4.9287815607
O       -2.2253282615   -1.1870219169    5.5220935855
O       -0.5132979087   -1.9181651268    7.1198084539
S       -0.8679583327   -1.7244330323    5.7045950168
Cl       0.0840665528   -7.0092806025    2.2423853134
Cl      -1.6615979794   -4.5743599755    1.0616062567
H        3.2391472205   -4.0672717512    0.5682371069
H        1.7852177011   -2.3619150722   -0.4980613206
H        3.4861638662   -4.1086224334    3.0382865583
H        0.5667555191   -0.7244060431    0.8872234231
H        2.2811367553   -2.4699797073    4.4351313674
H        0.4802676443   -4.2839400514    6.2779965304
H        0.8517586644   -6.3098311605    4.8994857935
H       -1.8060916005   -2.5654677686    3.0648621009
H        0.1763870848    0.3500997976    3.0856530995
H        0.7143255777    0.1419928351    5.5935343011
29   

C        2.6383133248   -3.4112789527    1.2928152318
C        1.8113531414   -2.4787024402    0.6618886559
C        2.8049801442   -3.3639936290    2.6789164489
C        1.1447040707   -1.5074317671    1.4172425306
C        2.1380936258   -2.3918372066    3.4325854259
C        0.0748244445   -4.3636219824    5.1655192686
C        0.2885557379   -5.4892036777    4.3660736555
C       -1.2221456572   -3.3754979931    3.3883635395
C        1.2882190430   -1.4597054698    2.8135285382
C       -0.6651606024   -3.2838840961    4.6721037052
C       -0.2294254376   -5.5605904868    3.0667751732
C       -1.0002792609   -4.4921609451    2.5742177879
C        0.5491190935   -0.4630326373    3.6015159598
C        0.1777163589   -0.5370859577    4.9009296734
O       -2.2813135890   -1.3051759218    5.5729412449
O       -0.4672405728   -1.9894338201    7.0582255266
S       -0.8888016516   -1.7705383933    5.6650201126
Cl       0.0949928963   -6.9714849535    2.0837456904
Cl      -1.6694767672   -4.5246405377    0.9571504955
H        3.1496990730   -4.1681149995    0.7084193466
H        1.6821850867   -2.5113006348   -0.4141587472
H        3.4486911001   -4.0834891230    3.1718158623
H        0.5002346884   -0.7973816614    0.9109089817
H        2.2772862571   -2.3679140867    4.5076724312
H        0.4921095593   -4.3230955356    6.1687404686
H        0.8702484802   -6.3184850488    4.7504136678
H       -1.8183945145   -2.5550565270    3.0003392730
H        0.3118157421    0.4650703241    3.0911616557
H        0.3751707623    0.3025654182    5.5494074125
29   

C        3.1676614850   -3.5334305064    1.9163383516
C        2.1352936121   -3.0600728719    1.1018289776
C        3.3174050879   -3.0284449949    3.2106356284
C        1.2540172364   -2.0841887423    1.5811828600
C        2.4325303010   -2.0568081135    3.6904992173
C        0.1841818566   -4.2671591558    4.4961063083
C        0.0635768830   -5.2719165161    3.5353637109
C       -1.7897425516   -3.2031413167    3.6097567067
C        1.3863902772   -1.5765131221    2.8832335265
C       -0.7305954765   -3.2087637242    4.5275264494
C       -0.9715539774   -5.2471507573    2.5941902827
C       -1.9150100380   -4.2035785285    2.6368141399
C        0.4412454624   -0.5694488990    3.3935683275
C        0.0186328725   -0.4506164304    4.6670491825
O       -1.7868587979   -1.4782223734    6.3419961386
O        0.5429093760   -2.1440438793    6.6845965781
S       -0.5093428163   -1.8299401467    5.7032337407
Cl      -1.0657161843   -6.5071791515    1.3833777698
Cl      -3.2294588914   -4.1238344413    1.4840224794
H        3.8518873213   -4.2878953400    1.5442121984
H        2.0154802903   -3.4506772578    0.0974917786
H        4.1198486881   -3.3875451198    3.8453998882
H        0.4538106337   -1.7331576739    0.9391353745
H        2.5616274137   -1.6745711386    4.6984636586
H        1.0066433653   -4.2957982924    5.2064687615
H        0.7893459562   -6.0758495476    3.5080571330
H       -2.5197216087   -2.3994155379    3.6347765411
H        0.0786722924    0.1633549716    2.6798963935
H       -0.2218207801    0.5206454522    5.0713001575
29   

C        3.1551222194   -3.5512011596    1.9808980634
C        2.1285830695   -3.0784240426    1.1585938476
C        3.3187235227   -3.0184014027    3.2624485384
C        1.2674078837   -2.0751631063    1.6174835012
C        2.4532728124   -2.0197076291    3.7219482373
C        0.1932626155   -4.2720353535    4.4213071602
C        0.0499605023   -5.2761321667    3.4631685982
C       -1.7967654692   -3.2031553969    3.5784738893
C        1.4135482124   -1.5401628956    2.9068730432
C       -0.7192247569   -3.2124664201    4.4743690313
C       -1.0055964185   -5.2492219059    2.5451845352
C       -1.9451925983   -4.2031360753    2.6081210757
C        0.4914195913   -0.4965766593    3.3940130478
C       -0.0667401049   -0.4280106557    4.6129763685
O       -1.7228696505   -1.5482816145    6.3760172516
O        0.6447327212   -2.1316594218    6.5668162501
S       -0.4748764917   -1.8412608197    5.6546260127
Cl      -1.1299131876   -6.5100362855    1.3378917818
Cl      -3.2846355471   -4.1208505914    1.4846453560
H        3.8242507588   -4.3265314201    1.6245707781
H        1.9978053641   -3.4902616332    0.1641587551
H        4.1167712328   -3.3765225707    3.9033035595
H        0.4717219579   -1.7232960421    0.9702734057
H        2.5927254795   -1.6148592604    4.7197158609
H        1.0307472787   -4.3029552308    5.1137957494
H        0.7733044032   -6.0815686434    3.4204364407
H       -2.5245275980   -2.3982097456    3.6194769000
H        0.2407424014    0.2911138229    2.6907927473
H       -0.4496480360    0.5115723972    4.9808400976
29   

C        3.1275785796   -3.5690296447    2.0181116969
C        2.1016991878   -3.0809072988    1.2038917887
C        3.3174861977   -3.0297666379    3.2935041293
C        1.2680743030   -2.0555383151    1.6646095774
C        2.4789183668   -2.0090389799    3.7548478795
C        0.2036791752   -4.2808924342    4.4061435935
C        0.0622004002   -5.2909513328    3.4539803771
C       -1.7950220459   -3.2272972949    3.5650453068
C        1.4412729649   -1.5138681593    2.9476182170
C       -0.7149157566   -3.2266636951    4.4578243682
C       -0.9970828233   -5.2748626433    2.5400518172
C       -1.9417341701   -4.2332323146    2.6006003792
C        0.5488647022   -0.4412576017    3.4356859218
C       -0.1477296657   -0.4286973687    4.5801756972
O       -1.7123653286   -1.5977840597    6.3909846953
O        0.6770321806   -2.1087607667    6.5122697954
S       -0.4769931785   -1.8506471920    5.6335721607
Cl      -1.1197710767   -6.5434287482    1.3407280080
Cl      -3.2859334716   -4.1642360986    1.4818791455
H        3.7756243022   -4.3613712495    1.6602755977
H        1.9500354353   -3.4976712346    0.2144866683
H        4.1148986694   -3.4000417678    3.9281904018
H        0.4726219472   -1.6904603464    1.0244427844
H        2.6369894437   -1.5989479066    4.7476932449
H        1.0438556485   -4.3034479242    5.0956492947
H        0.7896610861   -6.0927333640    3.4130030995
H       -2.5268264617   -2.4260010340    3.6040604916
H        0.4153293409    0.4060469508    2.7707988226
H       -0.6437295452    0.4749064410    4.9000458248
29   

C        1.9929737312   -3.0252100076    0.8731636582
C        1.0929928295   -1.9559722514    0.8726975374
C        2.7100812015   -3.3286825250    2.0337210718
C        0.9059206989   -1.1969112372    2.0332822347
C        2.5260106636   -2.5646600451    3.1916873107
C       -0.2611531002   -3.9911212775    5.4253911227
C        0.1593248284   -5.2871238152    5.1152596261
C       -0.9295057293   -3.6838997481    3.1295281665
C        1.6157291648   -1.4970033359    3.2072990660
C       -0.7924965867   -3.1691218849    4.4270641754
C        0.0484747373   -5.7902080440    3.8127903440
C       -0.5110678390   -4.9802840747    2.8086385938
C        1.4060280251   -0.7056417971    4.4417799888
C        0.2770703249   -0.6177839738    5.1553639018
O       -1.9174263970   -0.8275196885    3.6143806381
O       -2.1290434927   -1.3929746334    5.9856458112
S       -1.2765517802   -1.4461422823    4.7877277856
Cl       0.6084695946   -7.4105933647    3.4612550966
Cl      -0.6807162873   -5.5581851138    1.1647656151
H        2.1322686253   -3.6191995663   -0.0233443046
H        0.5351083305   -1.7157552069   -0.0255478798
H        3.4060919832   -4.1599174557    2.0374038418
H        0.1998605470   -0.3721201002    2.0223071467
H        3.0833037448   -2.8143848160    4.0874871716
H       -0.1653324204   -3.6185201603    6.4415474917
H        0.5816281720   -5.9155369222    5.8902882628
H       -1.3528534823   -3.0623893328    2.3454337606
H        2.2841597357   -0.2119790461    4.8454321854
H        0.2489857493   -0.0137999340    6.0492940751
29   

C        2.0058955173   -3.0173977779    0.8419795068
C        1.0973988276   -1.9563787900    0.8808065891
C        2.7355846483   -3.3487078431    1.9868816716
C        0.9134827908   -1.2342371555    2.0650251154
C        2.5543433881   -2.6219378096    3.1691112557
C       -0.2803549955   -3.9695696705    5.4410542133
C        0.1475226423   -5.2670813184    5.1477196194
C       -0.9390642320   -3.6917699443    3.1385623878
C        1.6336162947   -1.5642902764    3.2254498053
C       -0.8098118092   -3.1612082709    4.4306135549
C        0.0462114260   -5.7851292810    3.8503148439
C       -0.5121861720   -4.9893315330    2.8343087470
C        1.4256990953   -0.8172853644    4.4828525855
C        0.2570139186   -0.5880982184    5.0975551352
O       -1.9577191203   -0.8389937730    3.5931145801
O       -2.1332656309   -1.3617554665    5.9757383111
S       -1.2969987932   -1.4340557103    4.7674585603
Cl       0.6168367971   -7.4061882322    3.5196127909
Cl      -0.6689732588   -5.5856504841    1.1957905149
H        2.1429037523   -3.5826682915   -0.0732511336
H        0.5308336711   -1.6932323559   -0.0055283076
H        3.4393701971   -4.1729292273    1.9594272690
H        0.2025998434   -0.4137522334    2.0813378141
H        3.1218958618   -2.8946766868    4.0516371436
H       -0.1910286274   -3.5847721081    6.4532865368
H        0.5688149338   -5.8847873159    5.9318561245
H       -1.3612471678   -3.0812774347    2.3452063519
H        2.3213009129   -0.4532611280    4.9759236089
H        0.2096133353    0.1020568778    5.9259150597
29   

C        2.0454448371   -3.0038602187    0.8246854321
C        1.1178011759   -1.9607410044    0.8844424063
C        2.7791273967   -3.3463692817    1.9636627440
C        0.9185340999   -1.2679993984    2.0834997159
C        2.5822827739   -2.6493887923    3.1612978576
C       -0.2970260657   -3.9445598657    5.4544066680
C        0.1417470998   -5.2390829293    5.1638307919
C       -0.9605696440   -3.6784584276    3.1517946314
C        1.6419007246   -1.6102842881    3.2391436890
C       -0.8334369526   -3.1430364597    4.4421281806
C        0.0447872692   -5.7607979994    3.8675144035
C       -0.5216544831   -4.9725161353    2.8501151253
C        1.4140846867   -0.9000541771    4.5103590949
C        0.2256777130   -0.5425296280    5.0241797964
O       -2.0413608768   -0.8477162664    3.6165088931
O       -2.1177134848   -1.3336593053    6.0120101787
S       -1.3288064744   -1.4169174453    4.7729807657
Cl       0.6309819291   -7.3768937493    3.5398004404
Cl      -0.6726022591   -5.5731749928    1.2126682811
H        2.1945554844   -3.5462256547   -0.1024323952
H        0.5484639307   -1.6885979561    0.0026001128
H        3.4982693900   -4.1564920032    1.9195125548
H        0.1928424872   -0.4610044499    2.1143696527
H        3.1532935910   -2.9322055741    4.0383803594
H       -0.2102717762   -3.5562962318    6.4656028603
H        0.5688437486   -5.8513561615    5.9490870001
H       -1.3889275720   -3.0738462096    2.3572150481
H        2.2985474587   -0.6431433761    5.0843070491
H        0.1707971235    0.2407500421    5.7645491559
29   

C        2.1004817636   -3.0168023714    0.8191646334
C        1.1510600369   -1.9937441950    0.8807169538
C        2.8272979254   -3.3589559236    1.9625890587
C        0.9233993089   -1.3206196887    2.0857809770
C        2.6016997517   -2.6821040626    3.1667310181
C       -0.3173624679   -3.9387682630    5.4487036847
C        0.1292123602   -5.2253559786    5.1359617742
C       -1.0183175398   -3.6513411766    3.1595964011
C        1.6397857365   -1.6628277964    3.2464335943
C       -0.8752104485   -3.1298739584    4.4538997748
C        0.0191217229   -5.7317003963    3.8346123370
C       -0.5704734655   -4.9369235628    2.8354981868
C        1.3773105948   -0.9788394459    4.5233383938
C        0.1853130969   -0.5072739618    4.9364785143
O       -2.1748707872   -0.8581737800    3.7068265129
O       -2.0681536800   -1.3279413593    6.1051904412
S       -1.3724491886   -1.4097516955    4.8113919302
Cl       0.6184286663   -7.3367932337    3.4779338919
Cl      -0.7376824622   -5.5182211582    1.1927090136
H        2.2718108849   -3.5438070898   -0.1129545728
H        0.5869557997   -1.7223203021   -0.0046911310
H        3.5635103865   -4.1534971414    1.9167100921
H        0.1801613875   -0.5298352125    2.1172931589
H        3.1677189996   -2.9659074667    4.0466947796
H       -0.2192239742   -3.5615576145    6.4631455256
H        0.5736097427   -5.8429485074    5.9073372576
H       -1.4643845467   -3.0413274762    2.3790045680
H        2.2311490258   -0.8112290713    5.1717999899
H        0.1350312236    0.3729278028    5.5587720607
29   

C        2.2160114353   -3.0960794698    0.8618825952
C        1.2200333449   -2.1167450521    0.8824889509
C        2.9351023974   -3.3791738679    2.0260731935
C        0.9387213349   -1.4283204400    2.0673995791
C        2.6545340096   -2.6880387278    3.2104332020
C       -0.2940118273   -3.9445567012    5.4074025256
C        0.1525560480   -5.2094778256    5.0174458349
C       -1.1473231074   -3.5835150161    3.1810675955
C        1.6462131362   -1.7119363057    3.2490636939
C       -0.9270431841   -3.1086993486    4.4820209121
C       -0.0313624861   -5.6672849307    3.7066882690
C       -0.6984658606   -4.8469754910    2.7791538632
C        1.3243839411   -1.0170007913    4.5043598840
C        0.1282838398   -0.4729685229    4.8271813230
O       -2.3859933293   -0.8648780772    3.9773237294
O       -1.8971451930   -1.3594375488    6.3247299701
S       -1.4112127850   -1.4088173065    4.9367836589
Cl       0.5745615509   -7.2441041132    3.2494160947
Cl      -0.9583819521   -5.3680207340    1.1283574139
H        2.4296456218   -3.6344694486   -0.0548586734
H        0.6618161464   -1.8918279727   -0.0194711032
H        3.7083849713   -4.1389230159    2.0115531188
H        0.1604047736   -0.6718946931    2.0671503053
H        3.2158709847   -2.9267336191    4.1066180992
H       -0.1357113199   -3.6032547272    6.4271111967
H        0.6563611762   -5.8467169585    5.7344180799
H       -1.6531839802   -2.9524896728    2.4556803834
H        2.1360203230   -0.8841395435    5.2123275792
H        0.0776716002    0.5150735056    5.2578625775
29   

C        2.6769724757   -3.3422916737    1.2095417417
C        1.4366707160   -2.7073695391    1.1136997006
C        3.4649112104   -3.1555874012    2.3480786219
C        0.9839874913   -1.8922649614    2.1566991731
C        3.0073980411   -2.3448646271    3.3933841596
C       -0.1472958837   -3.9494749951    4.9855088843
C        0.1562903336   -5.1446191137    4.3320217545
C       -1.7288314928   -3.4167384161    3.2439219214
C        1.7560300269   -1.7111318615    3.3170730880
C       -1.0746803447   -3.0604318392    4.4313954574
C       -0.4659496450   -5.4830627133    3.1250082551
C       -1.4286964355   -4.6133003460    2.5795116993
C        1.2673555624   -0.8976570741    4.4350585254
C        0.0007845896   -0.4420834512    4.6481393599
O       -2.6472965883   -0.8558691148    4.7481419262
O       -1.3129662270   -1.5647873849    6.6815714582
S       -1.3825302856   -1.4441575034    5.2166551981
Cl      -0.0303670233   -6.9744194542    2.3196484689
Cl      -2.2406104538   -4.9905444885    1.0758909826
H        3.0270243888   -3.9755099487    0.4017966091
H        0.8222861450   -2.8477278293    0.2313539379
H        4.4308336625   -3.6424548448    2.4222976457
H        0.0208619597   -1.4036656474    2.0622832181
H        3.6299339632   -2.2183118264    4.2721172030
H        0.3543886047   -3.6998065632    5.9167879366
H        0.8921818290   -5.8169306146    4.7567588498
H       -2.4690603843   -2.7470616970    2.8146200238
H        2.0120320395   -0.5755707423    5.1559375688
H       -0.2001101948    0.6177914618    4.6292556483
29   

C        3.0106101425   -3.2112012858    1.1642678529
C        1.6684280007   -2.8281293839    1.1084073787
C        3.7865692613   -2.8578691397    2.2710460347
C        1.1046974642   -2.0933548820    2.1570359877
C        3.2185890323   -2.1300507582    3.3230266644
C       -0.2837927866   -3.9985082685    4.9701359771
C       -0.1003257382   -5.2144152117    4.3105046537
C       -1.9591218781   -3.3868321001    3.3459319104
C        1.8688635228   -1.7415967136    3.2828036226
C       -1.2007510679   -3.0626487658    4.4792521012
C       -0.8324470398   -5.5261974937    3.1592915755
C       -1.7799105396   -4.6043589516    2.6756114917
C        1.2769913305   -1.0028857039    4.3975854594
C       -0.0020855130   -0.5246148487    4.5430945662
O       -2.6424673722   -0.7913234536    4.9279917205
O       -1.1428563213   -1.5483848914    6.7284070813
S       -1.3654795570   -1.4326158144    5.2783610517
Cl      -0.5520640236   -7.0505778253    2.3465870862
Cl      -2.7258183701   -4.9465760370    1.2435785525
H        3.4485166175   -3.7786953201    0.3505334430
H        1.0618535576   -3.0998973737    0.2516996159
H        4.8300777963   -3.1491041788    2.3150445232
H        0.0633994973   -1.8006242854    2.0918701819
H        3.8368570292   -1.8688743711    4.1747680995
H        0.2999706352   -3.7726741968    5.8589008796
H        0.6248541535   -5.9257151826    4.6879868381
H       -2.6910856270   -2.6788611205    2.9663934699
H        1.9466559300   -0.7686847260    5.2190286157
H       -0.2404733341    0.4818202608    4.2368028485
29   

C        3.4365448275   -2.9928073100    1.0959560766
C        2.0396923806   -2.9559746551    1.1020444861
C        4.1498766442   -2.4221602914    2.1533252939
C        1.3587997157   -2.3447813316    2.1607916568
C        3.4670112719   -1.8192110392    3.2158440253
C       -0.4924681276   -4.1049116484    4.9853568682
C       -0.4781334561   -5.3502560417    4.3554564441
C       -2.1911476275   -3.3611407131    3.4421841779
C        2.0632571542   -1.7704198418    3.2319095748
C       -1.3390473357   -3.0920163676    4.5221454223
C       -1.3103517237   -5.6133087824    3.2612234888
C       -2.1821609100   -4.6078682920    2.8023814488
C        1.3546585436   -1.1353721192    4.3402092845
C        0.0527815110   -0.6746322947    4.4313703258
O       -2.5565988021   -0.7083269971    5.0328703489
O       -0.9771632265   -1.5576872114    6.7277638487
S       -1.3104751745   -1.4436780373    5.2988724073
Cl      -1.2485318971   -7.1827840990    2.4891457152
Cl      -3.2479839767   -4.8858693390    1.4422764207
H        3.9649904226   -3.4610367818    0.2728622389
H        1.4818971064   -3.4000110140    0.2850958924
H        5.2339335640   -2.4443417309    2.1493502529
H        0.2751228275   -2.3239699075    2.1485511597
H        4.0373118679   -1.3784102593    4.0261452442
H        0.1622256511   -3.9208006122    5.8336484959
H        0.1884967355   -6.1256825638    4.7145784847
H       -2.8694086396   -2.5905739276    3.0850812565
H        1.9435184371   -0.9851551304    5.2396799935
H       -0.2252909388    0.2106544861    3.8816968215
