17   

C        5.9158332214    0.1245699547   -0.8428156426
C        4.6764425716   -0.6282312984   -1.0436197808
C        5.9741225816    1.0501072215    0.1688418700
C        3.5816452153   -0.4470019345   -0.2372720023
C        4.8145481508    1.2605332175    1.0110106620
C        2.2659951024   -1.1421536125   -0.4086026817
C        2.1074565200   -2.3277872116   -1.3501190911
N        3.6763298751    0.5187354129    0.7947197071
O        4.8241593403    2.0845496180    1.9082324682
O        1.2844112229   -0.7092932295    0.1842437942
H        6.7741203194   -0.0417537337   -1.4858246127
H        4.6406388275   -1.3401047481   -1.8607411672
H        6.8597558693    1.6393854936    0.3622849067
H        2.8160526975   -3.1141663652   -1.0772536442
H        2.2905906752   -2.0118659133   -2.3802421119
H        1.0916507253   -2.7266995365   -1.2771607894
H        2.8786844126    0.7382474272    1.3831994238
17   

C        5.9079380472    0.1529336266   -0.8596634910
C        4.6589055294   -0.5745044709   -1.0908287193
C        5.9889375264    1.0092092021    0.2097606504
C        3.5834660551   -0.4497416214   -0.2487894074
C        4.8430880466    1.1733435591    1.0806803627
C        2.2471792405   -1.0928431639   -0.4736933631
C        2.1023671626   -2.3402897102   -1.3338817393
N        3.6986563047    0.4485904020    0.8402366793
O        4.8685353870    1.9449888280    2.0230160598
O        1.2419971995   -0.5386245452   -0.0465966649
H        6.7539757477    0.0251494826   -1.5272472066
H        4.5972474111   -1.2173721460   -1.9617967160
H        6.8813100614    1.5800146332    0.4262406139
H        2.7441930134   -3.1339420825   -0.9423796246
H        2.3842861812   -2.1185736753   -2.3660553947
H        1.0643508263   -2.6845599076   -1.3166932944
H        2.9023819713    0.6665986458    1.4306666327
17   

C        5.8956219993    0.2013582191   -0.9324250793
C        4.6328663803   -0.5018082196   -1.1635495827
C        6.0319665179    0.9653443299    0.1994846723
C        3.6045282893   -0.4538555016   -0.2576512753
C        4.9290503268    1.0591450261    1.1340526040
C        2.2465296070   -1.0559567065   -0.4933323175
C        2.0800095654   -2.3584371024   -1.2649685977
N        3.7721796708    0.3545081113    0.8930649551
O        5.0004530043    1.7545033177    2.1317638316
O        1.2512824461   -0.4054407909   -0.2061265544
H        6.7073446131    0.1301401924   -1.6492302053
H        4.5224822637   -1.0567549965   -2.0880977599
H        6.9361197042    1.5162033221    0.4187348671
H        2.4649945281   -3.1878628014   -0.6658457818
H        2.6186196948   -2.3167153955   -2.2138737442
H        1.0205341663   -2.5342619566   -1.4720120762
H        3.0019249929    0.5471738423    1.5246703503
17   

C        5.8835367408    0.2584430238   -0.9782593127
C        4.6132479791   -0.4209492860   -1.2363174634
C        6.0401926889    0.9455016903    0.1996847263
C        3.6013425379   -0.4282471819   -0.3126142550
C        4.9505046041    0.9842245308    1.1541573545
C        2.2352875803   -1.0068648768   -0.5900788114
C        2.0829548318   -2.3856237885   -1.2187490360
N        3.7849398599    0.3042834397    0.8850091236
O        5.0403020086    1.6102068570    2.1953520999
O        1.2549137168   -0.2830536710   -0.5134046149
H        6.6840023997    0.2310205188   -1.7105633821
H        4.4776964441   -0.9083178143   -2.1954584315
H        6.9506582050    1.4762516698    0.4412813132
H        2.1344013336   -3.1464818617   -0.4355161216
H        2.8759562051   -2.5716747076   -1.9459562600
H        1.1157340117   -2.4604719239   -1.7235161036
H        3.0269330948    0.4680423412    1.5383915267
17   

C        5.8667224305    0.3799571497   -1.0422520291
C        4.5899982013   -0.2778304771   -1.3226331220
C        6.0450788684    0.9863534735    0.1763551938
C        3.5912782317   -0.3358162693   -0.3893739771
C        4.9704462450    0.9648966652    1.1486365175
C        2.2241240464   -0.9227172934   -0.6800819235
C        2.0873950021   -2.3886197421   -1.0632711530
N        3.7944236670    0.3150782048    0.8514029633
O        5.0825610752    1.5092072546    2.2326504237
O        1.2725267753   -0.1776292616   -0.8361910436
H        6.6554348818    0.3968611192   -1.7875020150
H        4.4331385661   -0.7155824338   -2.3028354911
H        6.9624653864    1.4948662078    0.4387308549
H        2.0410829578   -2.9967261950   -0.1560723921
H        2.9453117582   -2.7064912482   -1.6605951900
H        1.1724131925   -2.5408864003   -1.6423882507
H        3.0557333618    0.4295167416    1.5359601613
17   

C        5.8226613509    0.5266684056   -1.1289636864
C        4.5511075813   -0.1149899769   -1.4645072484
C        6.0048416300    1.0085805489    0.1435397198
C        3.5478537131   -0.2468975202   -0.5457813942
C        4.9392691619    0.8743483135    1.1166907246
C        2.2190782802   -0.9123643688   -0.8553202577
C        2.0180863593   -2.3857919617   -0.5398037943
N        3.7625592331    0.2561073557    0.7605839076
O        5.0613100315    1.2862757213    2.2564946223
O        1.2871430145   -0.2533364983   -1.2786800561
H        6.6064984614    0.6226155639   -1.8733866770
H        4.4000259064   -0.4876849548   -2.4723999824
H        6.9208354239    1.4941651842    0.4504852753
H        2.4321959571   -2.6150619375    0.4454591976
H        2.5286405296   -2.9927723611   -1.2919026182
H        0.9518189987   -2.6286493182   -0.5455121968
H        3.0420614695    0.2702611012    1.4728777836
17   

C        5.7975342941    0.6504786837   -1.1635079633
C        4.5367766902    0.0094347126   -1.5381775611
C        5.9883826819    1.0198411060    0.1447869976
C        3.5413465505   -0.2103252775   -0.6269185319
C        4.9421576845    0.7703034676    1.1159335666
C        2.2620803939   -0.9397178983   -0.9788140454
C        1.9369505054   -2.2629429373   -0.3008250616
N        3.7716157318    0.1645059794    0.7203503740
O        5.0755658430    1.0689994583    2.2892085533
O        1.3949635532   -0.3917246713   -1.6356852497
H        6.5681006003    0.8292761050   -1.9065151841
H        4.3861237515   -0.2947016301   -2.5691579405
H        6.8986645367    1.4957425635    0.4823797908
H        2.2957167461   -2.2625916938    0.7312373711
H        2.4247562090   -3.0759535419   -0.8449986599
H        0.8563101047   -2.4303673595   -0.3034679825
H        3.0723990642    0.0813742664    1.4485400668
17   

C        5.7614818123    0.7970252169   -1.1484794954
C        4.5144051611    0.1466355658   -1.5509756486
C        5.9764800852    1.0473212743    0.1841994869
C        3.5492855179   -0.1866642816   -0.6395001967
C        4.9685626721    0.6663162448    1.1535748415
C        2.3169975310   -0.9543562677   -1.0464371933
C        1.8912816657   -2.1848312974   -0.2576895176
N        3.8066212265    0.0611811614    0.7322365228
O        5.1274635581    0.8512251125    2.3469358520
O        1.5514733184   -0.5003881308   -1.8801609597
H        6.5041776866    1.0727380524   -1.8902355794
H        4.3484799766   -0.0743057076   -2.6009431053
H        6.8796277618    1.5215926132    0.5426098661
H        1.7529774596   -1.9321704583    0.7960192993
H        2.6603572854   -2.9569712455   -0.3452197189
H        0.9511204475   -2.5767676220   -0.6561801057
H        3.1432265696   -0.1360792679    1.4714194887
17   

C        5.7523391153    0.8920702264   -1.1352382319
C        4.5300369650    0.2111095919   -1.5620081477
C        5.9810711584    1.0603665476    0.2080915260
C        3.5998078717   -0.2308578743   -0.6592301219
C        5.0120955239    0.5640745887    1.1651355661
C        2.4004493313   -1.0193468075   -1.1057766625
C        1.8635167078   -2.1559816528   -0.2474246603
N        3.8712158510   -0.0654606946    0.7223871128
O        5.1854896448    0.6733873494    2.3657699743
O        1.7582558882   -0.6634972888   -2.0813397249
H        6.4663233248    1.2537641792   -1.8681945252
H        4.3547485618    0.0547695642   -2.6222624170
H        6.8676419471    1.5523248889    0.5836300912
H        1.4187219351   -1.7571371073    0.6674144643
H        2.6777539890   -2.8385823432    0.0106995525
H        1.1020220461   -2.7118100319   -0.8020085176
H        3.2410790896   -0.3596001777    1.4583342009
17   

C        5.7389234618    0.9567427510   -1.1176789972
C        4.5306667650    0.2565790621   -1.5532354355
C        6.0051018785    1.0439714399    0.2264387614
C        3.6525239341   -0.2904090779   -0.6549309504
C        5.0889556141    0.4442627887    1.1761222987
C        2.4539807443   -1.0677588776   -1.1180386673
C        1.7999651223   -2.1012605145   -0.2111316204
N        3.9608869171   -0.2030993409    0.7263857154
O        5.2938740697    0.4852914270    2.3760672400
O        1.9254363648   -0.7978429940   -2.1860423422
H        6.4129004429    1.3969069667   -1.8455707705
H        4.3258993544    0.1720697304   -2.6164960867
H        6.8830121174    1.5470325925    0.6075571906
H        1.3530964782   -1.6089867825    0.6561106247
H        2.5481952714   -2.8248277737    0.1235746551
H        1.0176079142   -2.6337669107   -0.7595975878
H        3.3726503964   -0.5788157748    1.4597755233
17   

C        5.7067966539    1.0080741334   -1.1239418136
C        4.5285726370    0.2636271177   -1.5683312255
C        5.9967799731    1.0498054531    0.2173254773
C        3.7054487251   -0.3787117590   -0.6805186374
C        5.1343782708    0.3598382232    1.1556752017
C        2.5197847827   -1.1718559100   -1.1493680730
C        1.7698253453   -2.0934775353   -0.1967721225
N        4.0335634399   -0.3278002057    0.6983562110
O        5.3586397177    0.3635218903    2.3528521544
O        2.1089247694   -1.0374983989   -2.2928067971
H        6.3400753732    1.5167206954   -1.8437029730
H        4.3053971949    0.2233787075   -2.6305105841
H        6.8542540241    1.5828496428    0.6041654405
H        1.3203610758   -1.5098714308    0.6106302072
H        2.4580831869   -2.8320070105    0.2228322606
H        0.9769044088   -2.6191297306   -0.7366679522
H        3.4867653008   -0.7730537657    1.4248129090
17   

C        5.6717645573    1.0639868922   -1.1340210509
C        4.5259456542    0.2763829557   -1.5887287339
C        5.9832865358    1.0694227590    0.2030782367
C        3.7611081864   -0.4517666124   -0.7150190569
C        5.1749325656    0.2996604915    1.1273708934
C        2.5868448279   -1.2571693550   -1.1917704492
C        1.7421277687   -2.0633442542   -0.2139986005
N        4.1046673686   -0.4287646093    0.6608391402
O        5.4152190493    0.2758500355    2.3212040853
O        2.2979993940   -1.2712463204   -2.3796747577
H        6.2640297529    1.6334473912   -1.8430738179
H        4.2820115743    0.2740338843   -2.6470954207
H        6.8181034067    1.6324857416    0.5968809610
H        1.2978103807   -1.3974649773    0.5303579890
H        2.3637069132   -2.8108475694    0.2857630292
H        0.9393083714   -2.5756270450   -0.7521276036
H        3.5985469730   -0.9344671007    1.3771266138
17   

C        5.6032036843    1.1134229783   -1.1463677845
C        4.4926711631    0.2748161843   -1.5973546048
C        5.9436637680    1.1027238533    0.1836966408
C        3.7972412227   -0.5256767852   -0.7290774165
C        5.1998256694    0.2662827642    1.1043965594
C        2.6353004122   -1.3529533395   -1.1978756225
C        1.7042341280   -2.0282244887   -0.1997282536
N        4.1627011209   -0.5105621176    0.6410983565
O        5.4624688487    0.2324872228    2.2932710176
O        2.4609359928   -1.5396935368   -2.3933267147
H        6.1464367431    1.7334819216   -1.8522297503
H        4.2182628923    0.2912332399   -2.6481152927
H        6.7540168309    1.7022238177    0.5748057342
H        1.2734819625   -1.2794680676    0.4703519538
H        2.2568712595   -2.7688279731    0.3838944451
H        0.8921619426   -2.5318803455   -0.7320674870
H        3.7050340658   -1.0661322512    1.3530418549
17   

C        6.2646490525   -0.1042237384   -0.0291792817
C        5.2016605974   -1.0996667743   -0.1668776868
C        5.9218459606    1.2225093186    0.0566885293
C        3.8791654531   -0.7420714901   -0.1881625351
C        4.5241209503    1.6033172902    0.0094991696
C        2.8031174041   -1.7669852026   -0.4035259428
C        1.4436617614   -1.3618147461   -0.9567987000
N        3.5532702935    0.6361205698   -0.1164501238
O        4.1764644800    2.7692481282    0.0667831957
O        2.9716906851   -2.9186865758   -0.0316716827
H        7.3053081723   -0.4106243366    0.0018857298
H        5.4707709559   -2.1484390602   -0.2520533032
H        6.6633949271    2.0029150049    0.1572878065
H        1.5741657814   -0.8272142598   -1.9015733680
H        0.9245660409   -0.7193693351   -0.2413034864
H        0.8367192681   -2.2533780013   -1.1390015773
H        2.6055971441    0.9922634358   -0.1274701455
17   

C        6.2553445565   -0.1198936101   -0.0980800227
C        5.1842672215   -1.1105400017   -0.2042676826
C        5.9202398070    1.2013637075    0.0667254800
C        3.8645757574   -0.7562803635   -0.1116008681
C        4.5227960888    1.5807902626    0.1325962087
C        2.7738708443   -1.7682767120   -0.3256359304
C        1.4842838002   -1.3724497239   -1.0308229505
N        3.5451245679    0.6171543144    0.0350711735
O        4.1810725158    2.7432530449    0.2568666324
O        2.8478610604   -2.8717291498    0.1917436240
H        7.2954752146   -0.4248198995   -0.1525687115
H        5.4427541874   -2.1540761561   -0.3576430370
H        6.6673854489    1.9787197499    0.1476631516
H        1.7191941765   -0.8782868763   -1.9774877758
H        0.9048523106   -0.6942264299   -0.3998534436
H        0.8866882070   -2.2645091995   -1.2393700656
H        2.5989647438    0.9691244805    0.1132193071
17   

C        6.2272945742   -0.1397020041   -0.1882405174
C        5.1392162191   -1.1153863634   -0.2540694984
C        5.9214098296    1.1764236293    0.0549820342
C        3.8350699803   -0.7546262144   -0.0481453543
C        4.5375793115    1.5646865307    0.2421277839
C        2.7100581202   -1.7427273109   -0.2256238851
C        1.4981193595   -1.3734058286   -1.0695624872
N        3.5444174664    0.6142754129    0.1775390991
O        4.2202437001    2.7239102667    0.4397379134
O        2.6670714108   -2.7597157670    0.4460183003
H        7.2568365714   -0.4510002059   -0.3329941482
H        5.3727027528   -2.1538114222   -0.4683954135
H        6.6815190221    1.9433180743    0.1113199326
H        1.8099576361   -1.2196716138   -2.1061247534
H        1.0369068516   -0.4576931935   -0.6927067385
H        0.7617309975   -2.1815579620   -1.0390059151
H        2.6124000705    0.9670524276    0.3572259205
17   

C        6.1992131003   -0.1559542218   -0.3373923358
C        5.0916882610   -1.1108512265   -0.3862459378
C        5.9369751947    1.1431954365    0.0203661489
C        3.8129150645   -0.7479914620   -0.0658629252
C        4.5790137926    1.5340495588    0.3416817047
C        2.6433006371   -1.7024542371   -0.1830686826
C        1.5186564848   -1.4020450297   -1.1634609047
N        3.5669014887    0.6035880689    0.2823723011
O        4.3001500046    2.6788347868    0.6503814202
O        2.4842602734   -2.5917580194    0.6338754262
H        7.2093587405   -0.4692227179   -0.5808397651
H        5.2924989083   -2.1364671022   -0.6793416641
H        6.7129695775    1.8942659548    0.0731996372
H        1.7903114051   -1.7836368816   -2.1512147797
H        1.3501168897   -0.3248050394   -1.2342519647
H        0.5953060205   -1.8874880229   -0.8354516940
H        2.6608565001    0.9459719175    0.5788991217
17   

C        6.1504467208   -0.1305658598   -0.4545769846
C        5.0176085293   -1.0558283334   -0.4961741938
C        5.9448082224    1.1465650773    0.0051293466
C        3.7670383238   -0.6799469887   -0.0927472970
C        4.6202622860    1.5441958401    0.4386450957
C        2.5672923993   -1.6092903455   -0.1280453662
C        1.6348835660   -1.5973273464   -1.3286321753
N        3.5813503244    0.6440787685    0.3743679163
O        4.3950931917    2.6680478675    0.8509392388
O        2.3018030336   -2.3047498404    0.8352369586
H        7.1360902208   -0.4489974999   -0.7784297666
H        5.1790341200   -2.0691692825   -0.8492407315
H        6.7423809549    1.8744000771    0.0615765920
H        2.1047064031   -2.1282302089   -2.1605889373
H        1.4317622306   -0.5669156449   -1.6315988756
H        0.6913083144   -2.0889241479   -1.0757764893
H        2.7072379281    0.9746699013    0.7659256558
17   

C        6.0832392541   -0.0516812319   -0.5975185608
C        4.9153904775   -0.9320337403   -0.6467508212
C        5.9520124788    1.1904118736   -0.0278454904
C        3.6942522182   -0.5328527904   -0.1762688428
C        4.6696974932    1.5964911712    0.5119897525
C        2.4901168763   -1.4522332948   -0.1241555236
C        1.9168800088   -2.0340575798   -1.4076261541
N        3.5921447626    0.7451033535    0.4244282830
O        4.5183124677    2.6821971712    1.0432649908
O        2.1296882091   -1.9088465759    0.9467050932
H        7.0387387380   -0.3778684791   -0.9954812322
H        5.0318800996   -1.9305199417   -1.0547748661
H        6.7799515934    1.8819856867    0.0447366199
H        2.7181703934   -2.2446730499   -2.1199646337
H        1.2249697530   -1.3146978089   -1.8534082806
H        1.3781877127   -2.9607441835   -1.1912387050
H        2.7592865117    1.0549544303    0.9119883401
17   

C        6.0149163076   -0.0063122835   -0.7113681616
C        4.8362524857   -0.8712264875   -0.7783134840
C        5.9154069090    1.2005034196   -0.0649343653
C        3.6299478674   -0.4837633315   -0.2568374593
C        4.6542363189    1.5876193479    0.5347066671
C        2.4285075552   -1.3949924198   -0.1932650926
C        1.9900054701   -2.1968848085   -1.4115121052
N        3.5625257407    0.7579816037    0.4199796464
O        4.5361498133    2.6356764802    1.1443272191
O        1.9368128236   -1.6581980057    0.8929816472
H        6.9555608462   -0.3183420910   -1.1536263195
H        4.9421848990   -1.8482002567   -1.2367373796
H        6.7541660370    1.8765408980    0.0270718574
H        2.8540192877   -2.5279110797   -1.9913349374
H        1.3560217557   -1.5714645622   -2.0454828790
H        1.4196556483   -3.0745105765   -1.0946795483
H        2.7490711677    1.0351466731    0.9582817645
17   

C        5.9796179813    0.0334484766   -0.7634059827
C        4.7850138696   -0.8075839255   -0.8528403173
C        5.9171958432    1.2000431330   -0.0432409229
C        3.5972790777   -0.4367718741   -0.2765392429
C        4.6779647756    1.5701135895    0.6094352098
C        2.3735758340   -1.3102375635   -0.2338681400
C        2.0202201549   -2.2366405958   -1.3899445979
N        3.5703234422    0.7658129948    0.4709782633
O        4.5940739271    2.5801264383    1.2853684854
O        1.7457838108   -1.4009038984    0.8119685009
H        6.9035187360   -0.2650856409   -1.2482364425
H        4.8666489649   -1.7512899273   -1.3798094671
H        6.7692986632    1.8562430692    0.0678039825
H        2.8806905493   -2.8462515182   -1.6731945465
H        1.6997879383   -1.6407457326   -2.2486306233
H        1.2026291015   -2.9012047626   -1.0963995629
H        2.7691812066    1.0215539366    1.0385219833
17   

C        5.9503043647    0.0838105262   -0.8285976716
C        4.7376686839   -0.7309315204   -0.9200157073
C        5.9389361725    1.2038945367   -0.0356100695
C        3.5838576038   -0.3849710869   -0.2639081742
C        4.7342439422    1.5528335614    0.6893479134
C        2.3375478922   -1.2189739994   -0.2410791133
C        2.0394416409   -2.2297703033   -1.3394532136
N        3.6095324727    0.7724513698    0.5520486517
O        4.6955137716    2.5236348667    1.4242796737
O        1.6022919691   -1.1609443702    0.7366537706
H        6.8472778423   -0.1968379400   -1.3712328235
H        4.7741892174   -1.6339029860   -1.5191778138
H        6.8061260706    1.8395000023    0.0784083049
H        2.7912464167   -3.0227357699   -1.3327877954
H        2.0446992107   -1.7296125029   -2.3115201925
H        1.0537716361   -2.6749804192   -1.1765582830
H        2.8242134936    1.0159999100    1.1471373737
17   

C        5.9214168390    0.1136982709   -0.8342612271
C        4.7104396486   -0.6967258578   -0.9751631210
C        5.9204198171    1.1603302623    0.0534171534
C        3.5717258454   -0.4260322904   -0.2598670717
C        4.7277346084    1.4386892230    0.8267895967
C        2.3128572554   -1.2359473146   -0.3117005409
C        2.0918680655   -2.2974128437   -1.3802327096
N        3.6076185705    0.6600413437    0.6488843091
O        4.6953526171    2.3486393639    1.6361352614
O        1.4661278265   -1.0745732063    0.5597979753
H        6.8083094015   -0.1113070776   -1.4178506541
H        4.7357640718   -1.5331102725   -1.6647701499
H        6.7859494134    1.7904585378    0.2044611987
H        2.8265296640   -3.0985221887   -1.2662191180
H        2.1901826110   -1.8495167880   -2.3725439114
H        1.0880830385   -2.7204688197   -1.2814776576
H        2.8156221594    0.8690984135    1.2486983751
17   

C        5.9368578338    0.0968569968   -0.8680473301
C        4.7048948049   -0.6775506742   -1.0288789046
C        5.9794922521    1.0878034579    0.0804132688
C        3.5948888381   -0.4396215293   -0.2587513919
C        4.8110673879    1.3443254199    0.8970162632
C        2.2999404417   -1.1843748567   -0.3600517874
C        2.1025309983   -2.3101234911   -1.3656436991
N        3.6753594806    0.5908653049    0.7100472664
O        4.8120257169    2.2155215881    1.7485603467
O        1.3782794544   -0.8762857794    0.3874910119
H        6.8036266325   -0.1080674472   -1.4881275478
H        4.6894799678   -1.4564335575   -1.7830818656
H        6.8606224379    1.6923882803    0.2450445085
H        2.8228715639   -3.1094856667   -1.1735852345
H        2.2407319455   -1.9291351047   -2.3807801199
H        1.0909884721   -2.7161820538   -1.2749196427
H        2.8848858515    0.8109928053    1.3080686500
