30   

C       -1.4832271560    0.9665763202    0.9131672022
C       -1.2332071706   -0.2545595098    1.5419879616
C       -0.5008772623    1.5428401763    0.1062056518
C        5.5531356401    1.2249373707   -1.2609460946
C       -0.0016993567   -0.8969106170    1.3688503563
C        0.7304639147    0.9016329170   -0.0674100961
C        5.1996987886    0.0094815024   -1.8385734905
C        4.8903057847    1.6541211097   -0.1160388917
C        1.0067420072   -0.3261700446    0.5726806518
C        3.4642495892   -0.3164043582   -0.1651246874
C        4.1828777270   -0.7800997012   -1.2950331842
C        3.8580715246    0.8968397644    0.4414017398
C        2.2913810884   -1.0575555883    0.3842140039
C        3.8271146533   -3.1620518569   -1.1415963633
C        3.5627192550   -3.1126511989    0.3659633608
N        2.3419461476   -2.3394371171    0.6815843323
N        3.9385417488   -2.0166279938   -1.8937385724
O        3.9830774370   -4.2240698293   -1.7236811986
F        3.2566011463    1.3467561075    1.5673947788
H       -2.4383776019    1.4619870424    1.0466174327
H       -1.9953725510   -0.7094652804    2.1644282134
H       -0.6945415212    2.4859153327   -0.3921282675
H        6.3490266769    1.8241569862   -1.6910090427
H        0.1582391503   -1.8467427113    1.8681853372
H        1.4624933205    1.3648730040   -0.7187615471
H        5.7388555525   -0.3330659706   -2.7143272146
H        5.1710933706    2.5881172004    0.3561661824
H        3.4420225890   -4.1387080482    0.7243788947
H        4.4320066283   -2.6854813755    0.8738063825
H        4.2576926665   -2.2037399111   -2.8355375114
30   

C       -1.4438421879    1.0218286310    0.9461257597
C       -1.1287014563   -0.1063688588    1.7072627545
C       -0.5550924344    1.4661458145   -0.0353821662
C        5.5532836788    1.2385729147   -1.1705877583
C        0.0729570879   -0.7897681393    1.4875012855
C        0.6462267006    0.7831504273   -0.2543990405
C        5.2419863854    0.0269625209   -1.7791615331
C        4.8299301392    1.6469403116   -0.0555023636
C        0.9777853201   -0.3570938044    0.5053286860
C        3.4370081711   -0.3438618499   -0.1901524682
C        4.2101052101   -0.7815629604   -1.2948694210
C        3.7820118287    0.8710679644    0.4438623467
C        2.2481215831   -1.1034158293    0.2910800637
C        3.8376223896   -3.1698655519   -1.2266523676
C        3.5031748803   -3.1657967079    0.2669842894
N        2.2768840837   -2.3917905228    0.5572589490
N        3.9988634964   -2.0034361704   -1.9355458114
O        4.0111072650   -4.2145013385   -1.8345854910
F        3.1225975152    1.3051662728    1.5432991111
H       -2.3758016691    1.5493098951    1.1156771350
H       -1.8161106970   -0.4555455624    2.4693412104
H       -0.7973547046    2.3394532217   -0.6302338854
H        6.3610429888    1.8526505977   -1.5551251759
H        0.2973344934   -1.6640596080    2.0895865379
H        1.3180379505    1.1397187028   -1.0273840068
H        5.8240640490   -0.2959848197   -2.6346433091
H        5.0744531176    2.5796859073    0.4388079395
H        3.3584608196   -4.2018056536    0.5857232791
H        4.3523563020   -2.7641578470    0.8269545826
H        4.3618140362   -2.1651186971   -2.8661536986
30   

C       -1.4019139377    1.0603867176    0.9543607127
C       -0.9968338767    0.0461772991    1.8263985621
C       -0.6294191147    1.3572384376   -0.1714786709
C        5.5650116286    1.2474649303   -1.0720749841
C        0.1766908086   -0.6726767159    1.5705439685
C        0.5437098146    0.6380451774   -0.4251803743
C        5.2894984333    0.0456270101   -1.7156828997
C        4.7892766931    1.6311193506    0.0158513206
C        0.9550072189   -0.3946449240    0.4381513116
C        3.4220056168   -0.3697718904   -0.2112912901
C        4.2434419593   -0.7788721921   -1.2924441471
C        3.7266299294    0.8392956862    0.4554084670
C        2.2192823203   -1.1462883211    0.2003763477
C        3.8605586135   -3.1699253337   -1.3139594628
C        3.4636067516   -3.2129816085    0.1631396003
N        2.2320342227   -2.4403106809    0.4331915888
N        4.0627299809   -1.9827012004   -1.9757453662
O        4.0518357851   -4.1951422883   -1.9489487146
F        3.0176873313    1.2534326884    1.5314022908
H       -2.3117293225    1.6160215676    1.1518962460
H       -1.5912908904   -0.1850922083    2.7029305040
H       -0.9385821355    2.1453320369   -0.8486237462
H        6.3838016622    1.8743494845   -1.4097172620
H        0.4821115750   -1.4556509292    2.2566931705
H        1.1364098198    0.8800044932   -1.3007072040
H        5.9094019401   -0.2558101857   -2.5522140248
H        5.0032183510    2.5575108781    0.5356057065
H        3.2998877689   -4.2580962659    0.4402865343
H        4.2919275006   -2.8373248916    0.7703532683
H        4.4654779032   -2.1172122964   -2.8942497225
30   

C       -1.3671523144    1.0859747999    0.9376999659
C       -0.8484762287    0.2273559414    1.9111193298
C       -0.7264719608    1.2008313022   -0.2989983083
C        5.5862186890    1.2513559509   -0.9564204778
C        0.3055413916   -0.5188820414    1.6451010390
C        0.4272388443    0.4537191966   -0.5613678065
C        5.3309512071    0.0677370259   -1.6401657771
C        4.7779888603    1.6051102815    0.1174902740
C        0.9461565219   -0.4278208822    0.4029578978
C        3.4219240389   -0.3918800853   -0.2007514707
C        4.2740158753   -0.7685844025   -1.2705769788
C        3.7040833759    0.8012544715    0.5049303348
C        2.2093964419   -1.1829946519    0.1494472314
C        3.8816916076   -3.1577832156   -1.3889662191
C        3.4409480784   -3.2538965076    0.0728089063
N        2.2074042673   -2.4830786991    0.3381948858
N        4.1114409491   -1.9483880096   -1.9993387054
O        4.0844379512   -4.1595732753   -2.0568919528
F        2.9661222445    1.1896559842    1.5705707521
H       -2.2614957033    1.6635280305    1.1428524115
H       -1.3385828402    0.1396046141    2.8740471988
H       -1.1216939420    1.8703501081   -1.0544860797
H        6.4132931091    1.8879887434   -1.2531034374
H        0.7057664557   -1.1788913723    2.4073234129
H        0.9238946352    0.5555492583   -1.5202013845
H        5.9743914806   -0.2092714032   -2.4673033025
H        4.9745524059    2.5180230877    0.6670620365
H        3.2625188263   -4.3075870443    0.3047794386
H        4.2537815356   -2.9081297804    0.7175073962
H        4.5406440292   -2.0519417935   -2.9098549414
30   

C       -1.3858566581    1.0956266701    0.8909298377
C       -0.7285609569    0.4705755355    1.9541314749
C       -0.8811034451    0.9698278800   -0.4059031794
C        5.6276295074    1.2233307500   -0.8297502270
C        0.4282221942   -0.2815938622    1.7183203077
C        0.2758488197    0.2170813533   -0.6360613211
C        5.3457194915    0.0785208558   -1.5661107138
C        4.8301434933    1.5429428637    0.2621895592
C        0.9367403781   -0.4283160278    0.4227237435
C        3.4308166150   -0.4093865093   -0.1413538925
C        4.2727562477   -0.7520793624   -1.2315736701
C        3.7406247682    0.7446611232    0.6164267618
C        2.2006859716   -1.1926485338    0.1667090963
C        3.8336239301   -3.1247821799   -1.4665495667
C        3.3839270306   -3.2836718976   -0.0132782987
N        2.1652555232   -2.5000672528    0.2805766418
N        4.0845491632   -1.8911874446   -2.0170484506
O        4.0196281497   -4.0960697243   -2.1826630075
F        3.0182910699    1.1014745066    1.7022640510
H       -2.2827140129    1.6773488765    1.0719254843
H       -1.1136041091    0.5682000395    2.9627613408
H       -1.3847822874    1.4557584221   -1.2338114185
H        6.4663557327    1.8563431433   -1.1002808563
H        0.9350068115   -0.7613961525    2.5485868588
H        0.6653147679    0.1286962467   -1.6444782258
H        5.9802569584   -0.1722740347   -2.4083375985
H        5.0471872229    2.4254591364    0.8521978582
H        3.1814434832   -4.3433289950    0.1657145995
H        4.1999989936   -2.9868674143    0.6513949376
H        4.5119696488   -1.9582406822   -2.9318129113
30   

C       -1.2750437615    0.7193307067    0.6764205662
C       -0.4807598156    0.4406264582    1.7910346141
C       -0.8368623591    0.3434512271   -0.5949212694
C        5.8629025958    1.3334622812   -0.6998268851
C        0.7486887373   -0.2099599020    1.6321441983
C        0.3931846034   -0.3058143211   -0.7464000654
C        5.5992239031    0.2446236100   -1.5211128765
C        5.0836970875    1.5335779510    0.4319959115
C        1.2052906993   -0.5911517019    0.3652192855
C        3.7296417080   -0.4215961943   -0.1028574088
C        4.5607231602   -0.6451210774   -1.2337736399
C        4.0277209984    0.6740804537    0.7425053639
C        2.5272318271   -1.2719643713    0.1447278193
C        4.2253661989   -3.0080067234   -1.6431971698
C        3.7888798805   -3.2942105427   -0.2058090260
N        2.5374058889   -2.5846305411    0.1328815606
N        4.3991302548   -1.7253397242   -2.1040644462
O        4.4560873514   -3.9133873535   -2.4292723533
F        3.3339080997    0.9177751666    1.8744090629
H       -2.2286239859    1.2207859502    0.7978930960
H       -0.8185442595    0.7234827537    2.7815144255
H       -1.4495477425    0.5523629605   -1.4645576772
H        6.6746125667    2.0140568664   -0.9349119300
H        1.3423512901   -0.4371576594    2.5104478516
H        0.7249685409   -0.5958068329   -1.7376156595
H        6.2218355834    0.0841223485   -2.3937422555
H        5.2895574449    2.3698780436    1.0894760561
H        3.6308694887   -4.3716330892   -0.1053959997
H        4.5916303105   -3.0108996921    0.4806519920
H        4.8160287872   -1.7036603946   -3.0258339501
30   

C       -1.3092785467    0.6869566141    0.5661678432
C       -0.4319792568    0.7213121832    1.6509032908
C       -0.9393943951    0.0090996941   -0.5950417837
C        5.9225220710    1.3041012924   -0.5771417116
C        0.8148485308    0.0883425282    1.5708807315
C        0.3075324963   -0.6198420780   -0.6684936386
C        5.5565271497    0.3156334680   -1.4811620009
C        5.2474471742    1.3984932000    0.6325339790
C        1.2153879045   -0.5823349093    0.4074991836
C        3.7654880521   -0.4308156642    0.0001048458
C        4.5097105496   -0.5667780570   -1.2031070920
C        4.1868867659    0.5418847235    0.9371678593
C        2.5418808964   -1.2651962186    0.2249849833
C        4.1302777273   -2.8850449519   -1.7589315081
C        3.7576779674   -3.2701014278   -0.3251071256
N        2.5266560205   -2.5730577607    0.1029927267
N        4.2656281620   -1.5713018675   -2.1420875312
O        4.3249366750   -3.7341452293   -2.6145284224
F        3.6246772273    0.6572805809    2.1562664474
H       -2.2758787971    1.1740765367    0.6290656122
H       -0.7221618178    1.2286791615    2.5639405480
H       -1.6174872953   -0.0331649196   -1.4398751675
H        6.7392498349    1.9810828939   -0.8052041906
H        1.4317825670    0.0923445482    2.4576695487
H        0.5822598260   -1.1461426478   -1.5766991555
H        6.1083740668    0.2239187081   -2.4095716670
H        5.5440785878    2.1452334779    1.3594617405
H        3.5922615308   -4.3505596642   -0.2916667181
H        4.5905107383   -3.0386653229    0.3449098520
H        4.6296971482   -1.4860309738   -3.0823221217
30   

C       -1.3671542411    0.6132825918    0.5330351095
C       -0.3898405081    0.9353555317    1.4742012979
C       -1.0724725970   -0.3041467319   -0.4732602146
C        5.9465422594    1.3179622855   -0.4227865334
C        0.8805870571    0.3491092431    1.4055235977
C        0.1970590985   -0.8864442193   -0.5368328381
C        5.5120082560    0.4527713545   -1.4204544881
C        5.3476039952    1.2639254003    0.8310039881
C        1.2103537855   -0.5631871582    0.3913634498
C        3.7753018618   -0.4187882330    0.0482782042
C        4.4605739347   -0.4378192721   -1.1921544000
C        4.2852217208    0.3923635286    1.0846572334
C        2.5378759208   -1.2458880739    0.2399356253
C        4.0621404612   -2.7031905094   -1.9021887711
C        3.7470378446   -3.1971874239   -0.4843700271
N        2.5247973170   -2.5443242418    0.0321782656
N        4.1690600519   -1.3620526005   -2.1971853658
O        4.2299405707   -3.4874374578   -2.8229463826
F        3.8138100824    0.3120145731    2.3470060073
H       -2.3504202554    1.0669540682    0.5873324691
H       -0.6171820081    1.6387991732    2.2671739513
H       -1.8262522933   -0.5694797072   -1.2059214358
H        6.7664601649    2.0031976719   -0.6113788668
H        1.5771905554    0.6248022581    2.1795577669
H        0.4036543189   -1.6020226855   -1.3261006513
H        6.0180131497    0.4572902981   -2.3790026973
H        5.7114404691    1.8970574005    1.6314343889
H        3.5914208572   -4.2789286460   -0.5229541097
H        4.6012197525   -3.0061736182    0.1715281053
H        4.4962902359   -1.2060141739   -3.1418254390
30   

C       -1.3981431981    0.5856405595    0.5739709149
C       -0.3310840397    1.1061379315    1.3042552697
C       -1.1850836399   -0.5064613579   -0.2635983444
C        5.9680348260    1.3179841176   -0.2900972599
C        0.9455428988    0.5403426082    1.1948234301
C        0.0907673202   -1.0687924073   -0.3685262835
C        5.5338691424    0.5178346245   -1.3421816409
C        5.3545601421    1.1992950226    0.9534010909
C        1.1951930337   -0.5529891977    0.3490428314
C        3.7675022691   -0.4052246380    0.0524995867
C        4.4680003095   -0.3693475335   -1.1764738135
C        4.2765335395    0.3304956770    1.1424495890
C        2.5225424563   -1.2307163947    0.1990942365
C        4.0684762360   -2.5989423826   -1.9819644268
C        3.7514648506   -3.1490216449   -0.5837754748
N        2.5232870041   -2.5239550762   -0.0455564851
N        4.1818760713   -1.2470047956   -2.2232343197
O        4.2379551811   -3.3469772708   -2.9321273880
F        3.7782640230    0.1771874635    2.3904596932
H       -2.3858902738    1.0247909140    0.6581531362
H       -0.4908753822    1.9542928409    1.9603175662
H       -2.0074796416   -0.9234596967   -0.8338407603
H        6.8002186867    2.0002194977   -0.4294990042
H        1.7231097470    1.0003992217    1.7827364783
H        0.2224337822   -1.9213604598   -1.0267835707
H        6.0530660655    0.5672441103   -2.2923873858
H        5.7190701787    1.7775636026    1.7940426582
H        3.6026640681   -4.2293878571   -0.6644292900
H        4.6025402352   -2.9791487687    0.0819172949
H        4.5159972958   -1.0528311247   -3.1583318084
30   

C       -1.4023054611    0.5984743790    0.6258934141
C       -0.2714496270    1.2471168504    1.1184744907
C       -1.2596366539   -0.6240851404   -0.0254857181
C        5.9827505193    1.3022775666   -0.1727074119
C        0.9979020472    0.6771238559    0.9595581623
C        0.0092055049   -1.1908660145   -0.1808888906
C        5.5793223589    0.5357589347   -1.2619350943
C        5.3171260054    1.1639305593    1.0418293679
C        1.1767213221   -0.5509647835    0.3009932529
C        3.7504551548   -0.3999427001    0.0392127777
C        4.4968830389   -0.3412851261   -1.1610499800
C        4.2206511370    0.3068639335    1.1650827381
C        2.5016625607   -1.2251632483    0.1332735185
C        4.1046593689   -2.5427745016   -2.0403990694
C        3.7513679127   -3.1268433310   -0.6649618112
N        2.5120036707   -2.5136376589   -0.1381459656
N        4.2384644851   -1.1863723732   -2.2407699147
O        4.2937760594   -3.2667140165   -3.0054273503
F        3.6480786923    0.1485694646    2.3815400416
H       -2.3846324361    1.0409086614    0.7478369851
H       -0.3754013448    2.2001679198    1.6246292371
H       -2.1317475465   -1.1394296556   -0.4118097322
H        6.8289136503    1.9757145280   -0.2617584700
H        1.8288747267    1.2467736707    1.3468495979
H        0.0783115507   -2.1461867396   -0.6905691881
H        6.1356119847    0.6026931577   -2.1898310772
H        5.6519948879    1.7195704957    1.9096713602
H        3.6028376045   -4.2044145889   -0.7771404467
H        4.5865698902   -2.9767659538    0.0251144819
H        4.6015525291   -0.9689779831   -3.1598270368
30   

C       -1.3882896749    0.6292795744    0.6722147966
C       -0.2217887975    1.3515909391    0.9179865793
C       -1.2969796865   -0.6845194797    0.2185117184
C        5.9869972715    1.2654948603   -0.0638328084
C        1.0321794345    0.7632588111    0.7118254896
C       -0.0433969558   -1.2698729607    0.0146321838
C        5.6287688973    0.5171568504   -1.1812304207
C        5.2557742926    1.1275159707    1.1121537382
C        1.1572832009   -0.5583686788    0.2527167738
C        3.7284524726   -0.4144806634    0.0166424526
C        4.5318669752   -0.3473182092   -1.1463592218
C        4.1433890709    0.2846613706    1.1695279498
C        2.4754256581   -1.2336682763    0.0526186938
C        4.1432314567   -2.5209650131   -2.0965335285
C        3.7320169167   -3.1315677332   -0.7500676754
N        2.4836175062   -2.5157790552   -0.2482412502
N        4.3105635204   -1.1636144903   -2.2558265374
O        4.3579020016   -3.2241131701   -3.0715341740
F        3.4857380055    0.1470345576    2.3449000726
H       -2.3588758668    1.0857287025    0.8309602104
H       -0.2863946020    2.3760644733    1.2666447643
H       -2.1973570290   -1.2562878233    0.0241191840
H        6.8450685556    1.9286028418   -0.1021357742
H        1.8929674014    1.3898125676    0.8974445016
H       -0.0151883363   -2.2965868466   -0.3347415735
H        6.2306548700    0.5896824607   -2.0798005888
H        5.5478636070    1.6754944667    2.0001365487
H        3.5739316071   -4.2039735842   -0.8940796517
H        4.5445056005   -3.0101724597   -0.0280151718
H        4.7143037885   -0.9296752827   -3.1536318279
30   

C       -1.3668464983    0.6560919738    0.7250044244
C       -0.1966838895    1.4144831775    0.7276437831
C       -1.2972283926   -0.7117627845    0.4673389188
C        5.9775382199    1.2270765414    0.0305630767
C        1.0397534285    0.8075293991    0.4757963760
C       -0.0608386677   -1.3156959862    0.2168304689
C        5.6696086733    0.4884095752   -1.1079623112
C        5.1817972686    1.0961494779    1.1643128871
C        1.1405478513   -0.5688355882    0.2159807932
C        3.7055330177   -0.4373717280   -0.0122069439
C        4.5639513891   -0.3654348067   -1.1358932555
C        4.0597457569    0.2646879159    1.1601091684
C        2.4475223083   -1.2448981690   -0.0352086912
C        4.1706124366   -2.5076398713   -2.1617348380
C        3.6952355426   -3.1447054009   -0.8506691411
N        2.4436465087   -2.5180798023   -0.3713134360
N        4.3813114169   -1.1524819683   -2.2732727467
O        4.4064601973   -3.1880422169   -3.1478965710
F        3.3293314125    0.1465865790    2.2936413464
H       -2.3242381899    1.1265078636    0.9191214853
H       -0.2456009022    2.4800572192    0.9210392162
H       -2.2010766442   -1.3104125687    0.4615051777
H        6.8430194644    1.8815445124    0.0402754052
H        1.9089076662    1.4523098358    0.4656838364
H       -0.0445301287   -2.3832519856    0.0242820977
H        6.3158181267    0.5630339295   -1.9750363489
H        5.4284991661    1.6426446776    2.0668889216
H        3.5200529563   -4.2088272588   -1.0316373103
H        4.4836905286   -3.0625343743   -0.0971789857
H        4.8271991972   -0.9037509404   -3.1468520174
30   

C       -1.3443787753    0.6750631573    0.7726037652
C       -0.2027449633    1.4437558165    0.5430246876
C       -1.2621958238   -0.7157207647    0.7079078966
C        5.9608853132    1.1972195206    0.1133957303
C        1.0184729035    0.8235883441    0.2530448900
C       -0.0406888724   -1.3328177403    0.4184323739
C        5.7000731309    0.4664664233   -1.0416582891
C        5.1090066430    1.0729626588    1.2058954709
C        1.1291328790   -0.5746078033    0.1911146548
C        3.6845206585   -0.4559019296   -0.0397823521
C        4.5901416869   -0.3782757736   -1.1264683591
C        3.9818536068    0.2509060336    1.1463202739
C        2.4217998663   -1.2480046602   -0.1205837588
C        4.1852270180   -2.4838338244   -2.2328795756
C        3.6504419907   -3.1493623130   -0.9609971162
N        2.4007887342   -2.5099524761   -0.4945090522
N        4.4425740282   -1.1341985439   -2.2900516730
O        4.4343926140   -3.1375814029   -3.2336559467
F        3.1940352212    0.1458374644    2.2419374809
H       -2.2905331034    1.1550654753    0.9960776980
H       -0.2630521456    2.5253354964    0.5848048364
H       -2.1448222756   -1.3209724314    0.8809884048
H        6.8302035662    1.8444625700    0.1666287242
H        1.8739859693    1.4602583314    0.0608542636
H       -0.0061000166   -2.4163386193    0.3744246170
H        6.3843214186    0.5438285578   -1.8787947860
H        5.3142718185    1.6182801706    2.1194979607
H        3.4553231241   -4.2020843725   -1.1835324441
H        4.4168295188   -3.1130512857   -0.1816368186
H        4.9257377260   -0.8701903185   -3.1390042466
30   

C       -1.3291018067    0.6889894143    0.8176187803
C       -0.2437928762    1.4402278313    0.3620630827
C       -1.2032531376   -0.6945667472    0.9535216032
C        5.9468014505    1.1514920833    0.2109801805
C        0.9659650511    0.8097103227    0.0480803237
C        0.0069793691   -1.3221162890    0.6392870805
C        5.7247270668    0.4266763822   -0.9555382142
C        5.0471086002    1.0388531738    1.2652304703
C        1.1181926578   -0.5779453543    0.1932471059
C        3.6627337429   -0.4808333631   -0.0367872791
C        4.6093722910   -0.4047052241   -1.0890318402
C        3.9138281892    0.2303352631    1.1582444119
C        2.3944551000   -1.2527502402   -0.1713677642
C        4.1875536592   -2.4751796503   -2.2647657623
C        3.5970355634   -3.1610640630   -1.0301231592
N        2.3526639784   -2.5043816042   -0.5744581917
N        4.4914281937   -1.1346658040   -2.2727673472
O        4.4457787093   -3.1062103526   -3.2777127222
F        3.0795288504    0.1411523758    2.2203279303
H       -2.2668954028    1.1763690218    1.0595597881
H       -0.3400262827    2.5138305469    0.2467900287
H       -2.0437437648   -1.2854145507    1.2995578384
H        6.8205451514    1.7885207537    0.3016012364
H        1.7863432715    1.4165524296   -0.3187642960
H        0.0839858785   -2.3992481573    0.7445067992
H        6.4416742528    0.5015723876   -1.7650683852
H        5.2184911401    1.5835723317    2.1861374078
H        3.3805618354   -4.2009935531   -1.2899913654
H        4.3421363298   -3.1695423109   -0.2296604605
H        5.0086158352   -0.8616163372   -3.0985281485
30   

C       -1.3099265582    0.6960123511    0.8338947596
C       -0.3112796264    1.4087831440    0.1652731996
C       -1.1042922910   -0.6473017095    1.1573703092
C        5.9619224101    1.1060352253    0.2955023005
C        0.8932033564    0.7807096556   -0.1727417035
C        0.1006071008   -1.2725336967    0.8183604898
C        5.7660330609    0.4075158033   -0.8912236949
C        5.0250871499    0.9913583020    1.3161571381
C        1.1242359914   -0.5607883036    0.1655193635
C        3.6625071069   -0.4870004501   -0.0558214265
C        4.6420650009   -0.4019025723   -1.0776228776
C        3.8828359742    0.2042438409    1.1577490676
C        2.3878584588   -1.2329274708   -0.2481526963
C        4.2018029108   -2.4214223108   -2.3399150508
C        3.5628316105   -3.1378364999   -1.1483313144
N        2.3254981640   -2.4689554618   -0.6918900433
N        4.5455482419   -1.0919838918   -2.2872433569
O        4.4671700510   -3.0193396190   -3.3709050775
F        3.0139991831    0.1153903656    2.1917628935
H       -2.2439520868    1.1809661995    1.0945310234
H       -0.4717212991    2.4484096709   -0.0966463162
H       -1.8795237671   -1.2086776531    1.6663809690
H        6.8423285873    1.7265597138    0.4268177678
H        1.6523279866    1.3448403367   -0.7037079824
H        0.2453835113   -2.3198591553    1.0616889724
H        6.5090422085    0.4881012513   -1.6763184087
H        5.1734490093    1.5184028087    2.2512208295
H        3.3260493205   -4.1605953510   -1.4545658235
H        4.2884510399   -3.1982275197   -0.3323980568
H        5.0922601173   -0.8031171993   -3.0882587998
30   

C       -1.3214950598    0.7001622584    0.8450878643
C       -0.4334255804    1.3323113890   -0.0300350734
C       -1.0065932187   -0.5584978930    1.3645772138
C        5.9761914697    1.0335451185    0.4030190081
C        0.7711076543    0.7097294566   -0.3780236384
C        0.1981095689   -1.1783471541    1.0147760199
C        5.7927404521    0.3687409942   -0.8045813489
C        5.0134288053    0.9153729031    1.3984843643
C        1.1110176950   -0.5398070123    0.1575497092
C        3.6531758908   -0.5034982204   -0.0379993061
C        4.6565168811   -0.4113034137   -1.0365250981
C        3.8588469182    0.1568903537    1.1956908310
C        2.3687059663   -1.2163693691   -0.2797109710
C        4.1924728443   -2.3769830203   -2.3768813300
C        3.5119052225   -3.1179123316   -1.2245234983
N        2.2838818773   -2.4342629231   -0.7653767113
N        4.5710085293   -1.0605732402   -2.2695657791
O        4.4613496944   -2.9441865667   -3.4241665299
F        2.9664608767    0.0649278817    2.2089630148
H       -2.2557295781    1.1804076732    1.1135643407
H       -0.6805565654    2.3031413890   -0.4442791305
H       -1.6976741748   -1.0589928835    2.0332242600
H        6.8658856600    1.6320238566    0.5692841389
H        1.4467980737    1.2027147817   -1.0685935466
H        0.4303577554   -2.1630253480    1.4061227630
H        6.5543552304    0.4540875165   -1.5711047021
H        5.1504743606    1.4179590057    2.3485973205
H        3.2546226989   -4.1223336459   -1.5721611614
H        4.2200672696   -3.2270499962   -0.3984113343
H        5.1416983949   -0.7588702238   -3.0488411314
30   

C       -1.3431443302    0.7415393287    0.8267889446
C       -0.5754611640    1.2295718913   -0.2350654489
C       -0.9074764418   -0.3773078283    1.5427735246
C        5.9913417865    0.9682668044    0.5301883366
C        0.6306379848    0.6048018914   -0.5737384607
C        0.2982158421   -1.0001441968    1.2015351541
C        5.8064360341    0.3570740172   -0.7048506347
C        5.0185157836    0.8259349950    1.5122469864
C        1.0910485077   -0.4983622295    0.1556522339
C        3.6456737061   -0.5101658929    0.0090855299
C        4.6590695517   -0.3929047364   -0.9774799763
C        3.8527408801    0.0966620426    1.2698282230
C        2.3503728990   -1.1873814446   -0.2767086218
C        4.1729083148   -2.2885739504   -2.4089070036
C        3.4627720989   -3.0656435298   -1.2994354971
N        2.2441048118   -2.3750798935   -0.8266437294
N        4.5733690064   -0.9854334630   -2.2389500156
O        4.4430750709   -2.8133250931   -3.4777699140
F        2.9526734901   -0.0196492928    2.2728837085
H       -2.2784232865    1.2234855428    1.0885034418
H       -0.9176608570    2.0886597558   -0.8008184307
H       -1.5060177522   -0.7677170917    2.3579318114
H        6.8893108332    1.5445420332    0.7274437951
H        1.2128858263    0.9801636330   -1.4083270893
H        0.6249149319   -1.8790264366    1.7466232525
H        6.5752097303    0.4617669374   -1.4617540886
H        5.1560699500    1.2873685558    2.4829221945
H        3.1882999812   -4.0475608390   -1.6949342756
H        4.1575767019   -3.2266687664   -0.4704872386
H        5.1575727392   -0.6599757096   -2.9983953858
30   

C       -1.3605632500    0.7298420390    0.7401144714
C       -0.7073741070    0.9990778851   -0.4664424990
C       -0.8068423692   -0.1838510902    1.6418150967
C        6.0145662647    0.8814470253    0.6286690341
C        0.5047877718    0.3655113329   -0.7641132626
C        0.4042391188   -0.8176298134    1.3417192512
C        5.8052398216    0.3495429407   -0.6379358054
C        5.0626965301    0.6729257451    1.6185697086
C        1.0873620597   -0.5235980986    0.1491803092
C        3.6572194063   -0.5665734835    0.0614889492
C        4.6535447856   -0.3843748193   -0.9344363452
C        3.8925731711   -0.0418498247    1.3541190461
C        2.3549684202   -1.2225114471   -0.2563019269
C        4.1619092493   -2.1944105159   -2.4683304936
C        3.4564226394   -3.0338778202   -1.4026246376
N        2.2407352879   -2.3641305996   -0.8945830603
N        4.5488587006   -0.8981685786   -2.2287509161
O        4.4305636751   -2.6568328178   -3.5659859056
F        3.0205694555   -0.2242782248    2.3696202667
H       -2.2999668464    1.2195439009    0.9708635435
H       -1.1429822208    1.6940936711   -1.1752708591
H       -1.3191542817   -0.4085686959    2.5703668240
H        6.9153808527    1.4467368381    0.8439050853
H        0.9972884076    0.5665665382   -1.7094660445
H        0.8137304275   -1.5454112391    2.0334744066
H        6.5584828800    0.5039895142   -1.4019078997
H        5.2204515395    1.0709991235    2.6139042107
H        3.1787597466   -3.9913966219   -1.8520203387
H        4.1525566973   -3.2409774063   -0.5850860102
H        5.1227151757   -0.5250946098   -2.9740344001
30   

C       -1.3709973575    0.7265341298    0.6223563917
C       -0.8255110710    0.7202041207   -0.6638216935
C       -0.7093478591    0.0645395594    1.6598772630
C        6.0539333348    0.7941242267    0.6756164124
C        0.3906604434    0.0718642845   -0.9058593123
C        0.5057605972   -0.5866616210    1.4170352261
C        5.7800472672    0.3850477938   -0.6228461776
C        5.1653252945    0.4657931159    1.6906425161
C        1.0926369648   -0.5527874913    0.1381022851
C        3.6785600564   -0.6269425460    0.0971031487
C        4.6224528219   -0.3363821374   -0.9255534441
C        3.9904620382   -0.2402952381    1.4220729641
C        2.3643464633   -1.2594825517   -0.2413071938
C        4.1218815366   -2.0382834435   -2.5665950611
C        3.4612441592   -2.9650049993   -1.5444616592
N        2.2477918035   -2.3447200051   -0.9726130284
N        4.4653496210   -0.7453472994   -2.2515500842
O        4.3763972078   -2.4186181927   -3.6986132946
F        3.2002359710   -0.5554352193    2.4676244211
H       -2.3132337281    1.2286881858    0.8110160562
H       -1.3468224158    1.2128317532   -1.4767325056
H       -1.1452186239    0.0420205335    2.6522302265
H        6.9585071901    1.3513768437    0.8960107942
H        0.7980441720    0.0598035081   -1.9114265733
H        0.9595401553   -1.1432857190    2.2262368175
H        6.4888105321    0.6231160880   -1.4076280439
H        5.3790082573    0.7594839457    2.7114895758
H        3.1876578796   -3.8945207706   -2.0514290247
H        4.1794441938   -3.2127600213   -0.7578343650
H        5.0022567811   -0.3036338024   -2.9867444788
30   

C       -1.3375551604    0.8107434424    0.5062696314
C       -0.9543854548    0.4146222643   -0.7757322608
C       -0.5235101930    0.5019329983    1.5974218806
C        6.0149755414    0.6970071557    0.8030652923
C        0.2400330362   -0.2886128289   -0.9646328797
C        0.6725728088   -0.2013897229    1.4104122254
C        5.6742148615    0.4869952336   -0.5285229924
C        5.2217143292    0.1440168742    1.8026375718
C        1.0719711900   -0.6146682061    0.1226275039
C        3.6612515128   -0.7072596182    0.1432063242
C        4.5298865717   -0.2363363723   -0.8722396144
C        4.0637726764   -0.5723750379    1.4887552333
C        2.3452140741   -1.3322541737   -0.2156694625
C        4.0595783810   -1.8025497449   -2.6387023278
C        3.4900459818   -2.8593784017   -1.6832070370
N        2.2596947632   -2.3604493224   -1.0315982029
N        4.3244720525   -0.5159086090   -2.2245150650
O        4.2992981134   -2.0683157668   -3.8061271417
F        3.3886001594   -1.1695686723    2.4939951019
H       -2.2638357627    1.3546060688    0.6539816855
H       -1.5819755095    0.6515854976   -1.6273827520
H       -0.8203022510    0.8057693488    2.5949019695
H        6.9084145601    1.2577434447    1.0574636468
H        0.5202120379   -0.5826639333   -1.9710347998
H        1.2508429384   -0.4213720590    2.2928562102
H        6.3243784021    0.8714462199   -1.3059246580
H        5.5045435152    0.2579494248    2.8423240981
H        3.2549054103   -3.7565098924   -2.2626333081
H        4.2454097704   -3.1306702722   -0.9401665196
H        4.8066371290    0.0206098533   -2.9340616067
30   

C       -1.3530788429    0.8163226824    0.4847110343
C       -1.1109723562    0.1722719034   -0.7286986386
C       -0.3884160887    0.7754400543    1.4918744583
C        6.0112686377    0.6141364849    0.9042735755
C        0.0869787650   -0.5221218164   -0.9290982367
C        0.8118012914    0.0830850359    1.2927576271
C        5.6853148247    0.4854590973   -0.4423631564
C        5.1978712125    0.0157186971    1.8621171412
C        1.0590044750   -0.6080423121    0.0866607032
C        3.6489236996   -0.7110058632    0.1371393470
C        4.5361602860   -0.2016329034   -0.8399729435
C        4.0340177550   -0.6634652134    1.4924236224
C        2.3335954269   -1.3137094197   -0.2598973565
C        4.0802800886   -1.6889409667   -2.6728791330
C        3.5103603881   -2.7859552680   -1.7617755202
N        2.2690712392   -2.3232257756   -1.1027591708
N        4.3459191948   -0.4204688176   -2.2050192796
O        4.3260273426   -1.9079588065   -3.8487695441
F        3.3235087250   -1.3052908740    2.4482435716
H       -2.2821125434    1.3531670334    0.6406225554
H       -1.8504160081    0.2115877716   -1.5205587619
H       -0.5666458131    1.2877402685    2.4305658007
H        6.9095014037    1.1457852604    1.2008137404
H        0.2473057130   -0.9992885718   -1.8904110076
H        1.5279650610    0.1119679370    2.0987548538
H        6.3517384956    0.9013576493   -1.1892252706
H        5.4691239166    0.0649085713    2.9099497730
H        3.2887477017   -3.6627775913   -2.3765200341
H        4.2612194194   -3.0792254764   -1.0225332103
H        4.8355122614    0.1445314504   -2.8868109718
30   

C       -1.3812964044    0.7754522428    0.5279861071
C       -1.2445259393   -0.0541171914   -0.5845896189
C       -0.3018679339    0.9502445423    1.3935739776
C        6.0131951546    0.5393384310    0.9971004557
C       -0.0368606442   -0.7195874896   -0.8227335962
C        0.9075486612    0.2870773923    1.1563825862
C        5.7268698855    0.4471074061   -0.3617601107
C        5.1495465489   -0.0479307464    1.9171721203
C        1.0542852004   -0.5929591113    0.0599327243
C        3.6412978568   -0.7031096428    0.1279889030
C        4.5719818926   -0.1981803788   -0.8101904396
C        3.9784383055   -0.6831919405    1.4968190707
C        2.3300522376   -1.2797451729   -0.3125517803
C        4.1340331758   -1.6273323016   -2.6916715616
C        3.5282959842   -2.7357478815   -1.8190185295
N        2.2783776153   -2.2740538040   -1.1753240303
N        4.4166105136   -0.3782513057   -2.1848683605
O        4.4020870327   -1.8222570832   -3.8669500405
F        3.1977738997   -1.2940843225    2.4188866827
H       -2.3175633548    1.2903258251    0.7121579520
H       -2.0742584477   -0.1816023714   -1.2706378163
H       -0.3971885854    1.6100499029    2.2485094910
H        6.9169038735    1.0375073948    1.3326248293
H        0.0290474775   -1.3422266381   -1.7087653822
H        1.7171409905    0.4945487968    1.8404037093
H        6.4284631474    0.8584687722   -1.0783314347
H        5.3841338512   -0.0211057987    2.9746651077
H        3.3097702087   -3.5952319419   -2.4588141438
H        4.2586266777   -3.0561696145   -1.0705783707
H        4.9347100407    0.1938245159   -2.8391447892
30   

C       -1.3954679588    0.7323597699    0.5944165209
C       -1.3377492183   -0.2473615237   -0.3962326637
C       -0.2351780714    1.0839620564    1.2831977158
C        6.0053364087    0.4599599937    1.0708285302
C       -0.1262386659   -0.8839998042   -0.6885068288
C        0.9773722373    0.4492863826    0.9916479283
C        5.7684926466    0.3929862796   -0.2989734277
C        5.0851035721   -0.1023330215    1.9502981303
C        1.0523946150   -0.5748946119    0.0188859514
C        3.6319643123   -0.6998571357    0.0949870440
C        4.6116130474   -0.2085393054   -0.8006752432
C        3.9108838400   -0.6929185327    1.4777592035
C        2.3251406760   -1.2411842249   -0.3933222778
C        4.1881863287   -1.5697501728   -2.7369860868
C        3.5281369932   -2.6831575675   -1.9135974084
N        2.2747754317   -2.2088736030   -1.2862197961
N        4.4985719616   -0.3481250428   -2.1840372240
O        4.4833355346   -1.7387717737   -3.9097818264
F        3.0595897867   -1.2593225434    2.3650357895
H       -2.3345201660    1.2254181683    0.8195196179
H       -2.2329944282   -0.5148537884   -0.9460818358
H       -0.2706798803    1.8591103217    2.0402984600
H        6.9112524541    0.9239745217    1.4469523122
H       -0.1289086079   -1.6300742969   -1.4760373031
H        1.8506437242    0.7922444924    1.5292756167
H        6.5092980523    0.7919010549   -0.9823677024
H        5.2748274057   -0.0874736076    3.0170243412
H        3.3036593871   -3.5173858584   -2.5840175424
H        4.2298075878   -3.0454956689   -1.1569453755
H        5.0538485943    0.2257001325   -2.8054736202
30   

C       -1.3924787659    0.6934025144    0.6681519311
C       -1.3801608695   -0.4111477558   -0.1839540305
C       -0.1890567069    1.1958598242    1.1630801436
C        5.9905976174    0.3835490509    1.1503976917
C       -0.1686602618   -1.0188420997   -0.5330618207
C        1.0229129630    0.5897380075    0.8146540393
C        5.8114454493    0.3293227299   -0.2285454691
C        5.0112694374   -0.1428750058    1.9865797978
C        1.0564389666   -0.5485410046   -0.0233314457
C        3.6261316705   -0.6973844874    0.0657491627
C        4.6575990596   -0.2293117346   -0.7844354945
C        3.8391247841   -0.6907813338    1.4611688220
C        2.3243245580   -1.1945799769   -0.4736934371
C        4.2486871773   -1.5223357381   -2.7745704894
C        3.5209684865   -2.6308502126   -2.0061363587
N        2.2681247125   -2.1320042208   -1.3976940533
N        4.5942878317   -0.3340320164   -2.1741595933
O        4.5742445524   -1.6687280795   -3.9423367655
F        2.9239113063   -1.2124519762    2.3111654914
H       -2.3316310334    1.1641099217    0.9364914111
H       -2.3113282197   -0.7990174379   -0.5811897969
H       -0.1920792944    2.0641222324    1.8122236314
H        6.8948029191    0.8143608900    1.5678722652
H       -0.2045525863   -1.8696589722   -1.2051580324
H        1.9325673947    1.0370378451    1.1951136903
H        6.5936010140    0.7080354648   -0.8764511858
H        5.1511985246   -0.1314996798    3.0610355544
H        3.2857245110   -3.4352558546   -2.7085552878
H        4.1859525764   -3.0428471206   -1.2418420512
H        5.1925754078    0.2337745896   -2.7602168756
