38

C      1.81507   -1.91586    0.15352
C      3.22563   -0.34215    1.30419
C      0.69218   -1.39527    0.79992
C      2.11403    0.19859    1.94830
C     -2.23590    1.11809    2.94859
C      3.09708   -1.39998    0.38988
C      0.84476   -0.32635    1.68626
C     -1.35262    1.01609    4.07330
C     -1.49147    0.60282    1.88766
C     -6.25057    3.07335    2.75777
C     -6.22374    2.75364    4.93122
C     -3.58424    1.62449    2.86700
C      4.30463   -1.95219   -0.33030
C     -1.61468    1.40821    5.49128
C     -5.86641    3.20084    1.32167
N     -0.18844    0.48564    3.71543
N     -7.39632    3.47625    3.25363
N     -7.39259    3.26462    4.63078
N     -4.16536    2.11078    3.91155
N     -0.27882    0.22405    2.36852
N     -5.45454    2.58652    3.79915
S     -5.61845    2.29464    6.51757
Cl    -1.92990    0.51798    0.22206
H      1.68968   -2.74982   -0.53283
H      4.21079    0.06746    1.51491
H     -0.28646   -1.83092    0.62908
H      2.21727    1.01129    2.65947
H     -4.07140    1.55887    1.89446
H      4.53165   -1.35701   -1.22298
H      5.19260   -1.93516    0.30854
H      4.13958   -2.98319   -0.65557
H     -2.46885    0.85664    5.89508
H     -0.72973    1.20248    6.09747
H     -1.87009    2.46945    5.56138
H     -4.88864    3.67936    1.20284
H     -5.84091    2.23472    0.80574
H     -6.62054    3.82313    0.83641
H     -6.76665    2.66372    7.12169
