31

C     -1.13640   -1.29787   -3.95677
C     -1.65303   -1.01306   -2.69157
C     -1.03169   -0.29733   -4.92928
C     -1.97939    1.29273   -3.34009
C     -2.07300    0.28635   -2.37076
C     -1.46371    0.98101   -4.59453
C     -1.74723   -0.02407    0.12838
C      0.29403   -0.17945    1.41492
C      0.16682    1.51778   -0.42536
C      0.78252   -1.59943    1.10881
C      1.13989    1.03599   -1.50949
C     -2.59464    0.60006   -0.98187
N     -0.48302    0.45854    0.34873
O     -2.19841   -0.95310    0.80443
F     -1.37218    1.97071   -5.52154
S      1.51968   -1.81440   -0.56473
S      2.52081   -0.01134   -0.89521
H     -0.79779   -2.30419   -4.18623
H     -1.70616   -1.79500   -1.94029
H     -0.62667   -0.49287   -5.91721
H     -2.29139    2.31293   -3.13298
H     -0.31928   -0.22824    2.31997
H      1.15359    0.46131    1.61531
H      0.70118    2.16563    0.27770
H     -0.59571    2.13532   -0.90260
H      1.50762   -1.89454    1.87257
H     -0.05676   -2.29842    1.12433
H      0.62236    0.48230   -2.29183
H      1.62030    1.90939   -1.96586
H     -2.68407    1.68229   -0.84579
H     -3.59102    0.17199   -0.84755
