18

C     -0.12422   -0.67866   -1.05389
C      0.02618   -0.10482    1.02999
C      0.16404    0.84102   -1.01498
C      0.76934    2.29702    0.99748
N     -0.17312   -1.14995    0.26448
N      0.14545    1.11574    0.42178
N      0.09904   -0.20729    2.40370
O     -0.27776   -1.32658   -2.07007
O      0.11366   -1.22847    4.77995
P     -0.03370   -1.59928    3.36005
Cl     1.36276   -2.89820    2.65766
Cl    -1.80770   -2.46515    2.87854
H      1.14426    1.05465   -1.45655
H     -0.60330    1.40582   -1.55108
H      1.85842    2.19176    1.09531
H      0.34172    2.52622    1.97818
H      0.55673    3.15249    0.35362
H      0.21970    0.63234    2.96162
