32

C     -6.49240   -0.49900    1.35111
C     -5.84182   -1.44199    0.52571
C     -5.77591    0.30764    2.23276
C     -4.45706   -1.59941    0.56397
C     -2.13694    0.23621    2.66564
C     -4.37758    0.16955    2.29164
C     -3.33199    0.81488    3.06228
C     -3.74359   -0.78645    1.45134
C     -2.11373    5.36741    7.65414
C     -3.52027    5.59962    7.68425
C     -3.78403    4.01118    6.10375
C     -3.42014    1.85727    4.06185
C     -1.15758    6.12804    8.52631
N     -1.64669    4.44711    6.82464
N     -4.35676    4.93725    6.92421
N     -2.47033    3.74641    6.02905
N     -4.57662    2.34984    4.37992
N     -2.37846   -0.72030    1.70393
N     -4.68995    3.33903    5.32440
O     -3.99956    6.53721    8.52887
H     -7.57368   -0.40392    1.29422
H     -6.42932   -2.05631   -0.15150
H     -6.27198    1.03269    2.86793
H     -3.95621   -2.32567   -0.07175
H     -1.13038    0.44349    3.00575
H     -2.49595    2.19976    4.52225
H     -1.39006    5.98260    9.58675
H     -0.14138    5.78132    8.33053
H     -1.21543    7.20408    8.33003
H     -1.67199   -1.28448    1.25407
H     -5.64893    3.62521    5.46965
H     -4.96863    6.55487    8.41131
