29   

C        3.0827240312   -2.8230461716    0.6829477876
C        2.3939054748   -1.6758979712    0.2808720219
C        2.9286135744   -3.3034114256    1.9859821141
C        1.5485975283   -1.0142751480    1.1787211317
C        2.0933813622   -2.6329466255    2.8866737726
C       -0.1546993468   -4.4152269615    5.6952686490
C       -0.0343887329   -5.6825874980    5.1193920192
C       -1.3773449769   -3.6741561087    3.7522589612
C        1.3909331718   -1.4815425091    2.4939293585
C       -0.8159338902   -3.3935075632    5.0062953217
C       -0.5708751502   -5.9552457283    3.8544595715
C       -1.2553218654   -4.9384059924    3.1642764807
C        0.5091501165   -0.7873169015    3.4275816395
C        0.3878060838   -0.8933446838    4.8032310948
O       -2.2156547771   -1.0964426049    5.3491001249
O       -0.6331199669   -1.7127984498    7.1423887150
S       -0.9261336337   -1.7117408648    5.7003690675
Cl      -0.3789291049   -7.5501037064    3.1597206806
Cl      -1.9473245681   -5.2217791913    1.5815084101
H        3.7344036917   -3.3384892687   -0.0138761107
H        2.5153294416   -1.2972028356   -0.7278291845
H        3.4561770843   -4.1971723842    2.2993349965
H        1.0233540033   -0.1245182711    0.8492132752
H        1.9827755150   -3.0205973291    3.8929974727
H        0.2699714084   -4.2225118170    6.6777150145
H        0.4834296242   -6.4694788467    5.6551662858
H       -1.9099871772   -2.8957978683    3.2129270351
H       -0.1886958783   -0.0916078388    2.9720269766
H        1.2323961573   -0.6332333655    5.4210010264
29   

C        2.8596992318   -3.1015761323    0.8814346201
C        2.1751683740   -1.9853345719    0.3948052467
C        2.7982295477   -3.4133277403    2.2417272694
C        1.4246963984   -1.1875786512    1.2658425199
C        2.0538239452   -2.6100655692    3.1125707450
C       -0.0698760384   -4.3963766528    5.5533216387
C        0.1153502984   -5.6118317245    4.8891159196
C       -1.2402973605   -3.5477845458    3.6222323061
C        1.3501342919   -1.4909951026    2.6357523453
C       -0.7344810091   -3.3447162196    4.9145332096
C       -0.3581359046   -5.8019127300    3.5843973542
C       -1.0499872157   -4.7574631070    2.9451652916
C        0.5415697750   -0.6668667387    3.5329816962
C        0.3628656861   -0.7591282830    4.8918645275
O       -2.2265993125   -1.1346094956    5.4091469118
O       -0.6276490777   -1.7979907403    7.1587854234
S       -0.9112073709   -1.7173103522    5.7170195953
Cl      -0.0775397690   -7.3288574694    2.7767169508
Cl      -1.6614681173   -4.9361459338    1.3147309750
H        3.4369250094   -3.7231389039    0.2058862404
H        2.2234421455   -1.7384101773   -0.6598831923
H        3.3269482826   -4.2794183317    2.6232593016
H        0.8964592962   -0.3286721110    0.8667980690
H        2.0202394840   -2.8667038165    4.1648819775
H        0.3107824580   -4.2652102910    6.5635125511
H        0.6379215102   -6.4211958596    5.3851324894
H       -1.7745640076   -2.7463886877    3.1198056608
H        0.0611243853    0.1910377711    3.0731508611
H        0.9287898234   -0.1175472272    5.5490658496
29   

C        2.7154438279   -3.3359955684    1.1731041873
C        1.9411574323   -2.3387649759    0.5752635264
C        2.8085511505   -3.3994329276    2.5651628847
C        1.2544006961   -1.4126787944    1.3686216411
C        2.1206031913   -2.4735006317    3.3567504778
C        0.0416263808   -4.3521016883    5.2815760523
C        0.2467104183   -5.4961727840    4.5059496501
C       -1.2235950412   -3.3814231601    3.4719079611
C        1.3233561206   -1.4752888117    2.7703028578
C       -0.6771263731   -3.2720162180    4.7589833484
C       -0.2600636323   -5.5859935159    3.2031059994
C       -1.0111882923   -4.5170319652    2.6823699764
C        0.5569883417   -0.5315974344    3.5915111066
C        0.3097579057   -0.6052979790    4.9287815607
O       -2.2233627013   -1.1805608988    5.5271299347
O       -0.5127223646   -1.9185372230    7.1195523864
S       -0.8679583327   -1.7244330323    5.7045950168
Cl       0.0550523150   -7.0193752285    2.2500015103
Cl      -1.6649662387   -4.5709870901    1.0595275601
H        3.2430722917   -4.0572374247    0.5588904828
H        1.8680481382   -2.2862308858   -0.5052419968
H        3.4120592388   -4.1686510667    3.0332677487
H        0.6507081940   -0.6525697771    0.8852543047
H        2.2061811257   -2.5369438498    4.4355035871
H        0.4525146034   -4.2959933604    6.2867214280
H        0.8142057669   -6.3254771838    4.9109995093
H       -1.8018016284   -2.5593344115    3.0603329839
H        0.2168232727    0.3706471997    3.0930957407
H        0.5780496040    0.2251073149    5.5635393030
29   

C        2.6432830380   -3.4022400507    1.2840162338
C        1.8727595640   -2.4235270334    0.6516894539
C        2.7537271101   -3.4044269944    2.6762943285
C        1.2064486356   -1.4552065363    1.4112972429
C        2.0840438974   -2.4376938905    3.4342398287
C        0.0389100684   -4.3775851654    5.1719685755
C        0.2447672416   -5.5051070667    4.3732922465
C       -1.2285727139   -3.3700039092    3.3842355178
C        1.2882190430   -1.4597054698    2.8135285382
C       -0.6810008406   -3.2867342756    4.6726765222
C       -0.2624846544   -5.5682217810    3.0693722122
C       -1.0148508644   -4.4891722668    2.5712269259
C        0.5491190935   -0.4630326373    3.6015159598
C        0.1777163589   -0.5370859577    4.9009296734
O       -2.2790949033   -1.2971019683    5.5820482548
O       -0.4637554765   -1.9932517473    7.0565044626
S       -0.8888016516   -1.7705383933    5.6650201126
Cl       0.0527219919   -6.9819862224    2.0874722401
Cl      -1.6703673707   -4.5115250784    0.9484393630
H        3.1554428446   -4.1558482772    0.6961363512
H        1.7871527509   -2.4178521732   -0.4291634368
H        3.3565753603   -4.1574965304    3.1707130643
H        0.6066515654   -0.7087332897    0.9024836800
H        2.1840589456   -2.4507270704    4.5137579717
H        0.4483166319   -4.3435675648    6.1787393280
H        0.8123578136   -6.3422300185    4.7617863174
H       -1.8098997982   -2.5412796840    2.9912716490
H        0.3335926371    0.4735142041    3.0969234374
H        0.2611991006    0.3488732474    5.5116486666
29   

C        3.1715172208   -3.5259293159    1.9048683889
C        2.1910936662   -2.9878842650    1.0669682050
C        3.2702798822   -3.0870978979    3.2275443805
C        1.3109439965   -2.0132171910    1.5510773874
C        2.3831631638   -2.1206041802    3.7133650801
C        0.1563242991   -4.2815590367    4.5082879197
C        0.0304216246   -5.2856087725    3.5475625536
C       -1.7921478277   -3.1890871309    3.6010501071
C        1.3863902772   -1.5765131221    2.8832335265
C       -0.7415328279   -3.2083573009    4.5284795158
C       -0.9951525980   -5.2469959111    2.5965665165
C       -1.9236319971   -4.1897430847    2.6290810654
C        0.4412454624   -0.5694488990    3.3935683275
C        0.0186328725   -0.4506164304    4.6670491825
O       -1.7832012772   -1.4742112127    6.3469512512
O        0.5444967733   -2.1506468078    6.6808063627
S       -0.5093428163   -1.8299401467    5.7032337407
Cl      -1.0965644490   -6.5075747417    1.3868663988
Cl      -3.2270740302   -4.0935954810    1.4650872887
H        3.8560333592   -4.2781099878    1.5286866411
H        2.1109636318   -3.3273181408    0.0403554690
H        4.0359180640   -3.4924870983    3.8796344341
H        0.5522841247   -1.6113381688    0.8887824475
H        2.4788845349   -1.7874821247    4.7421397171
H        0.9708908095   -4.3222703857    5.2270951371
H        0.7444850452   -6.1002090440    3.5281473475
H       -2.5104767477   -2.3748101829    3.6175847937
H        0.0797367484    0.1642369734    2.6802607079
H       -0.3014098256    0.5103652346    5.0397742428
29   

C        3.1590954280   -3.5438589231    1.9680686172
C        2.1845307679   -3.0085920345    1.1215660269
C        3.2724766283   -3.0742519543    3.2790340870
C        1.3249235466   -2.0062863963    1.5856687509
C        2.4049605458   -2.0804911174    3.7450458956
C        0.1714001058   -4.2857987608    4.4348371982
C        0.0251409855   -5.2892640290    3.4765053744
C       -1.7944935342   -3.1914996102    3.5689504255
C        1.4135482124   -1.5401628956    2.9068730432
C       -0.7260884589   -3.2128796034    4.4756253593
C       -1.0204020632   -5.2500612237    2.5476465860
C       -1.9468626213   -4.1917801677    2.5995067478
C        0.4914195913   -0.4965766593    3.3940130478
C       -0.0667401049   -0.4280106557    4.6129763685
O       -1.7219399418   -1.5456245076    6.3764555614
O        0.6427250948   -2.1364090137    6.5677687941
S       -0.4748764917   -1.8412608197    5.6546260127
Cl      -1.1491895772   -6.5114965896    1.3414254698
Cl      -3.2748126155   -4.0949739312    1.4635877334
H        3.8282517246   -4.3171123007    1.6073188017
H        2.0931876876   -3.3711341980    0.1038309237
H        4.0344903302   -3.4762266948    3.9374816691
H        0.5708993689   -1.6055036295    0.9174205190
H        2.5138549299   -1.7211467536    4.7635356749
H        1.0004445392   -4.3275990060    5.1368043124
H        0.7381413157   -6.1042937225    3.4423749259
H       -2.5120335849   -2.3770929798    3.6007465181
H        0.2223702365    0.2798553988    2.6850914483
H       -0.5030884113    0.4984774110    4.9537389256
29   

C        3.1318025534   -3.5618446654    2.0053088933
C        2.1596959624   -3.0118883448    1.1653622992
C        3.2700520573   -3.0846995398    3.3113200109
C        1.3278429479   -1.9872628959    1.6311045277
C        2.4293052989   -2.0688047336    3.7791040301
C        0.1850086191   -4.2947090326    4.4208870019
C        0.0420528753   -5.3042319405    3.4683589691
C       -1.7893535282   -3.2166990496    3.5543170176
C        1.4412729649   -1.5138681593    2.9476182170
C       -0.7192570552   -3.2275663415    4.4591206190
C       -1.0064262731   -5.2764277204    2.5423790753
C       -1.9385988338   -4.2230608400    2.5907340935
C        0.5488647022   -0.4412576017    3.4356859218
C       -0.1477296657   -0.4286973687    4.5801756972
O       -1.7131709829   -1.5958980324    6.3889548879
O        0.6730236327   -2.1123767981    6.5163902093
S       -0.4769931785   -1.8506471920    5.6335721607
Cl      -1.1318543179   -6.5457771629    1.3441216837
Cl      -3.2704099530   -4.1402616761    1.4581803131
H        3.7798045705   -4.3522564862    1.6431606603
H        2.0487533846   -3.3800133807    0.1515850738
H        4.0305349526   -3.4979718812    3.9645000045
H        0.5754397735   -1.5739383116    0.9686689899
H        2.5566730922   -1.7027435351    4.7929974055
H        1.0159926669   -4.3277249821    5.1209707243
H        0.7596324918   -6.1153019857    3.4368231354
H       -2.5114192936   -2.4062580697    3.5832802610
H        0.3773709942    0.3850149115    2.7532778443
H       -0.6751516801    0.4640615211    4.8796958418
29   

C        2.0061777209   -3.0248402690    0.8733601469
C        1.0455146206   -2.0104596943    0.8939649372
C        2.7811878618   -3.2696081339    2.0100846125
C        0.8511839621   -1.2526809546    2.0541320439
C        2.5937358608   -2.5025560401    3.1656171835
C       -0.2444798394   -3.9849376083    5.4237599083
C        0.1764247690   -5.2810412048    5.1145526360
C       -0.9500301801   -3.6939107920    3.1372896249
C        1.6157291648   -1.4970033359    3.2072990660
C       -0.7940316461   -3.1703845085    4.4290976093
C        0.0493076664   -5.7913766450    3.8164332035
C       -0.5287368971   -4.9893156580    2.8165300087
C        1.4060280251   -0.7056417971    4.4417799888
C        0.2770703249   -0.6177839738    5.1553639018
O       -1.9241411827   -0.8292471316    3.6172330737
O       -2.1261592589   -1.3937563085    5.9876736560
S       -1.2765517802   -1.4461422823    4.7877277856
Cl       0.6118813139   -7.4109305576    3.4650720078
Cl      -0.7175742585   -5.5753391315    1.1776577153
H        2.1495267916   -3.6198230840   -0.0218441137
H        0.4472348982   -1.8107160273    0.0119447561
H        3.5256520882   -4.0576183056    1.9970451372
H        0.1037344246   -0.4654633977    2.0535394977
H        3.1982470540   -2.7072112373    4.0420050939
H       -0.1347132977   -3.6065234377    6.4363125984
H        0.6124972952   -5.9036115652    5.8866513554
H       -1.3898798913   -3.0795887264    2.3567099284
H        2.2959943670   -0.2717515813    4.8861099157
H        0.2540795645   -0.0282589536    6.0590611646
29   

C        2.0210318305   -3.0172587866    0.8424383616
C        1.0536527435   -2.0110335695    0.8996912213
C        2.8057812700   -3.2896162317    1.9660105522
C        0.8616980373   -1.2898562816    2.0831453370
C        2.6200500104   -2.5597071540    3.1457223232
C       -0.2648077704   -3.9637204538    5.4400648214
C        0.1629610212   -5.2615441317    5.1478761975
C       -0.9600442112   -3.7020840644    3.1467640789
C        1.6336162947   -1.5642902764    3.2254498053
C       -0.8118162326   -3.1626670327    4.4330560518
C        0.0453334202   -5.7869825222    3.8548647282
C       -0.5310272146   -4.9989534646    2.8429124357
C        1.4256990953   -0.8172853644    4.4828525855
C        0.2570139186   -0.5880982184    5.0975551352
O       -1.9643196552   -0.8411105516    3.5958277727
O       -2.1302824078   -1.3623084044    5.9777811373
S       -1.2969987932   -1.4340557103    4.7674585603
Cl       0.6178183762   -7.4075033710    3.5246210063
Cl      -0.7071916407   -5.6036381565    1.2094582567
H        2.1628497350   -3.5836339200   -0.0713707483
H        0.4487873754   -1.7883094850    0.0276940505
H        3.5566459520   -4.0705102296    1.9238599755
H        0.1110508512   -0.5062353998    2.1071719623
H        3.2327750006   -2.7871144320    4.0107012374
H       -0.1616396466   -3.5730825172    6.4486953322
H        0.5975980617   -5.8734974905    5.9292213865
H       -1.3981376702   -3.0986634273    2.3567052059
H        2.3219228729   -0.4927879600    5.0016937609
H        0.2178923619    0.0722390655    5.9503328770
29   

C        2.0608626101   -3.0034579589    0.8253360629
C        1.0750998653   -2.0167609217    0.9020865934
C        2.8481318688   -3.2858369020    1.9446269981
C        0.8676198536   -1.3250883362    2.1002777173
C        2.6463608419   -2.5859907968    3.1398871751
C       -0.2824588712   -3.9383232331    5.4570147286
C        0.1557287741   -5.2336651367    5.1690108976
C       -0.9820209660   -3.6910098846    3.1632932348
C        1.6419007246   -1.6102842881    3.2391436890
C       -0.8358898943   -3.1451467238    4.4472299571
C        0.0423447451   -5.7643340721    3.8776939507
C       -0.5416425719   -4.9849066658    2.8634951689
C        1.4140846867   -0.9000541771    4.5103590949
C        0.2256777130   -0.5425296280    5.0241797964
O       -2.0449876650   -0.8514564750    3.6169064015
O       -2.1163832609   -1.3316895513    6.0126720519
S       -1.3288064744   -1.4169174453    4.7729807657
Cl       0.6297879187   -7.3804508691    3.5522053653
Cl      -0.7122022671   -5.5958872027    1.2318094617
H        2.2150678139   -3.5467340876   -0.1004089773
H        0.4680646058   -1.7862780361    0.0336101009
H        3.6134876162   -4.0515272683    1.8869748387
H        0.1017682489   -0.5568101335    2.1383361637
H        3.2614314417   -2.8223957901    4.0007560897
H       -0.1818318336   -3.5430666767    6.4641551168
H        0.5958880866   -5.8393997045    5.9521043425
H       -1.4257213248   -3.0942906009    2.3712240092
H        2.2959679114   -0.6620496790    5.0962885277
H        0.1801190571    0.1979844629    5.8080039426
29   

C        2.1147560786   -3.0155254667    0.8197995611
C        1.1066437685   -2.0519047822    0.8981011034
C        2.8954173842   -3.2956893907    1.9442785248
C        0.8711317995   -1.3804051427    2.1024600019
C        2.6651067015   -2.6166498135    3.1464165968
C       -0.3030410427   -3.9316173060    5.4566672702
C        0.1425592964   -5.2197795286    5.1486732438
C       -1.0402010650   -3.6675574183    3.1764252464
C        1.6397857365   -1.6628277964    3.2464335943
C       -0.8777793656   -3.1329583770    4.4631327291
C        0.0156146272   -5.7377146059    3.8534328894
C       -0.5915082562   -4.9537361619    2.8564312243
C        1.3773105948   -0.9788394459    4.5233383938
C        0.1853130969   -0.5072739618    4.9364785143
O       -2.1740536136   -0.8641631126    3.7032138403
O       -2.0698892695   -1.3218605426    6.1038002477
S       -1.3724491886   -1.4097516955    4.8113919302
Cl       0.6156484033   -7.3436407906    3.5016443959
Cl      -0.7789785087   -5.5486243777    1.2206946445
H        2.2910303918   -3.5429294088   -0.1111656458
H        0.5038641138   -1.8243544786    0.0259104699
H        3.6778009965   -4.0438612237    1.8852190879
H        0.0855678082   -0.6322167965    2.1424286254
H        3.2753017864   -2.8523668284    4.0109071191
H       -0.1907432565   -3.5454242332    6.4661801807
H        0.6000635445   -5.8294128938    5.9186917502
H       -1.5013112136   -3.0669037518    2.3973423712
H        2.2312361936   -0.8106404476    5.1715322187
H        0.1446428889    0.3208044262    5.6274217546
29   

C        2.2288524742   -3.0929436062    0.8621616433
C        1.1747983721   -2.1773737307    0.9014795735
C        3.0009034255   -3.3115012244    2.0060847112
C        0.8862278846   -1.4916360152    2.0860944066
C        2.7159232229   -2.6193966225    3.1889468182
C       -0.2781667671   -3.9367661818    5.4171914641
C        0.1662372013   -5.2043608996    5.0331531229
C       -1.1722398248   -3.6038925908    3.2027251089
C        1.6462131362   -1.7119363057    3.2490636939
C       -0.9297380037   -3.1129703857    4.4938211752
C       -0.0377002287   -5.6767574380    3.7305487692
C       -0.7241748915   -4.8691943442    2.8061293615
C        1.3243839411   -1.0170007913    4.5043598840
C        0.1282838398   -0.4729685229    4.8271813230
O       -2.3833662072   -0.8715425949    3.9709051369
O       -1.9011516769   -1.3499300979    6.3228876628
S       -1.4112127850   -1.4088173065    4.9367836589
Cl       0.5673650219   -7.2556937245    3.2793947294
Cl      -1.0085674295   -5.4077167494    1.1649732605
H        2.4471756418   -3.6308005182   -0.0537834939
H        0.5777229078   -1.9991451953    0.0140873495
H        3.8192801396   -4.0219846763    1.9770176692
H        0.0646880202   -0.7824765240    2.0974911877
H        3.3205340602   -2.8077727813    4.0688235105
H       -0.1035723788   -3.5842499924    6.4303250324
H        0.6845661548   -5.8322099962    5.7480275339
H       -1.6941527340   -2.9834847770    2.4795279912
H        2.1421416249   -0.8662856001    5.2016437550
H        0.0926997703    0.4622035583    5.3646213738
29   

C        2.6849049319   -3.3385508152    1.2094361492
C        1.4214325806   -2.7483187801    1.1345378106
C        3.4923678934   -3.1075770255    2.3259364280
C        0.9645166703   -1.9357453226    2.1775612512
C        3.0317996162   -2.2970530628    3.3701494425
C       -0.1435070530   -3.9484103578    4.9891439239
C        0.1564051198   -5.1467423189    4.3397525020
C       -1.7462218384   -3.4316299129    3.2620606818
C        1.7560300269   -1.7111318615    3.3170730880
C       -1.0792624351   -3.0653580536    4.4395049784
C       -0.4776808422   -5.4943515205    3.1415211111
C       -1.4492309575   -4.6310514105    2.6014190357
C        1.2673555624   -0.8976570741    4.4350585254
C        0.0007845896   -0.4420834512    4.6481393599
O       -2.6472570691   -0.8565404345    4.7473629879
O       -1.3143634980   -1.5566380653    6.6822312188
S       -1.3825302856   -1.4441575034    5.2166551981
Cl      -0.0453780827   -6.9886661380    2.3398902360
Cl      -2.2752045566   -5.0192284250    1.1082737810
H        3.0378912011   -3.9707344495    0.4021598324
H        0.7925896308   -2.9205327130    0.2681453956
H        4.4759662320   -3.5600327331    2.3840212827
H       -0.0152595007   -1.4790729736    2.0969832272
H        3.6704277008   -2.1359941605    4.2315192433
H        0.3678239470   -3.6915624840    5.9131704679
H        0.8990179836   -5.8141871297    4.7604707545
H       -2.4931230608   -2.7667847134    2.8366718575
H        2.0219538439   -0.5379329312    5.1272876682
H       -0.1640371641    0.6148752318    4.7901339303
29   

C        3.0109102283   -3.2106045692    1.1639778439
C        1.6670845280   -2.8329397755    1.1109322973
C        3.7883952314   -2.8520039561    2.2679934199
C        1.1031930563   -2.0985473691    2.1597314676
C        3.2203488950   -2.1242673277    3.3200073045
C       -0.2848483518   -3.9988428910    4.9700110609
C       -0.1021923069   -5.2149657482    4.3105704588
C       -1.9619151694   -3.3875149749    3.3474519379
C        1.8688635228   -1.7415967136    3.2828036226
C       -1.2022780188   -3.0630770698    4.4798432334
C       -0.8355585630   -5.5270237678    3.1602281117
C       -1.7834790912   -4.6052549408    2.6772831880
C        1.2769913305   -1.0028857039    4.3975854594
C       -0.0020855130   -0.5246148487    4.5430945662
O       -2.6422636690   -0.7900314588    4.9296854808
O       -1.1420887136   -1.5469488862    6.7283977481
S       -1.3654795570   -1.4326158144    5.2783610517
Cl      -0.5560230265   -7.0515975948    2.3475928046
Cl      -2.7307572599   -4.9477513015    1.2462256376
H        3.4488970761   -3.7779289102    0.3501713559
H        1.0593469250   -3.1084655419    0.2562524715
H        4.8331223298   -3.1391512687    2.3098534807
H        0.0607434394   -1.8095108169    2.0966066870
H        3.8398117402   -1.8591740727    4.1696608831
H        0.3000449653   -3.7726865834    5.8579520184
H        0.6234107300   -5.9261528751    4.6874517909
H       -2.6940278642   -2.6794343958    2.9683888502
H        1.9562845137   -0.7375186988    5.2014665362
H       -0.2199931231    0.5079099006    4.3190800188
29   

C        3.4358106807   -2.9936352578    1.0959719325
C        2.0429110210   -2.8871932882    1.0651304328
C        4.1454216878   -2.4928674676    2.1905380921
C        1.3626957027   -2.2738377450    2.1230938684
C        3.4624942928   -1.8917587682    3.2540524617
C       -0.4883855053   -4.1043452143    4.9877544536
C       -0.4714791841   -5.3497708370    4.3579460397
C       -2.1815406086   -3.3612853434    3.4383316676
C        2.0632571542   -1.7704198418    3.2319095748
C       -1.3337515324   -3.0918116365    4.5215929348
C       -1.2998416254   -5.6132312047    3.2608548691
C       -2.1701314266   -4.6080326321    2.7987481174
C        1.3546585436   -1.1353721192    4.3402092845
C        0.0527815110   -0.6746322947    4.4313703258
O       -2.5578520212   -0.7123087911    5.0277605956
O       -0.9799028718   -1.5572672663    6.7284376335
S       -1.3104751745   -1.4436780373    5.2988724073
Cl      -1.2354977699   -7.1830132450    2.4895737653
Cl      -3.2316243760   -4.8865200797    1.4353228225
H        3.9641337894   -3.4619566585    0.2728458070
H        1.4878583160   -3.2794651727    0.2203185638
H        5.2268453585   -2.5676506781    2.2145601755
H        0.2818753504   -2.2003448830    2.0829136632
H        4.0301870189   -1.5054698087    4.0934660782
H        0.1629773277   -3.9201177923    5.8385431444
H        0.1939724026   -6.1250783864    4.7194473057
H       -2.8592337371   -2.5913091757    3.0789718349
H        1.9297833971   -1.0273807622    5.2544855883
H       -0.2573004778    0.1261619844    3.7791388936
