19   
Generated by ForceBalance from scan.xyz: Frame 1 of 24
C        4.1983384707    1.2233225696    0.3748356275
C        3.3425686295    0.1688154853    0.8214366257
C        4.5936096650    1.0688417378   -0.9300574018
C        3.0910334550   -0.7654116301   -0.1521161726
C        0.9179900865   -1.8798119357    0.0040537710
C        0.2636467184   -0.5636057530   -0.3775521206
C        2.9844004371   -3.1834224568    0.2943112132
N        2.3062516606   -1.9300947787   -0.0604052159
O        0.2623749103   -2.8569013933    0.3532661295
S        3.9207681476   -0.3581485388   -1.6449776243
H        4.5126303490    2.0550316110    0.9966750815
H        2.9248933880    0.0948909507    1.8206275629
H        5.2439618267    1.7116994302   -1.5098946115
H        0.2655923805    0.1175623116    0.4789068731
H       -0.7714402685   -0.7744199742   -0.6486719401
H        0.7753727521   -0.0603792968   -1.2006885581
H        2.3187830800   -4.0165933285    0.0708678336
H        3.2374346272   -3.2073520842    1.3606476736
H        3.9026248643   -3.2685121076   -0.2913167646
19   
Generated by ForceBalance from scan.xyz: Frame 2 of 24
C        4.1663709463    1.1912524590    0.4445235552
C        3.2799369543    0.1213350631    0.7812315829
C        4.6493009616    1.0964205433   -0.8364779157
C        3.0962034084   -0.7649513361   -0.2511982687
C        0.9242124301   -1.8469244741   -0.0759119118
C        0.2476205083   -0.5647287513   -0.5268399586
C        2.9637064942   -3.1823646532    0.1269454136
N        2.3023431328   -1.9304369816   -0.2728864399
O        0.3000374587   -2.7683249688    0.4393180992
S        4.0219893781   -0.2907348816   -1.6627922622
H        4.4401116578    1.9902869850    1.1255821331
H        2.7963299100    0.0019548857    1.7457635486
H        5.3411021924    1.7608926767   -1.3387037406
H        0.1558087168    0.1206189226    0.3212856403
H       -0.7591618116   -0.8205198001   -0.8619576083
H        0.7920739910   -0.0503159801   -1.3206661975
H        2.3462988605   -4.0256951729   -0.1825746483
H        3.1042784272   -3.2309498065    1.2130081161
H        3.9370803567   -3.2323532050   -0.3648153858
19   
Generated by ForceBalance from scan.xyz: Frame 3 of 24
C        4.1220173622    1.1393031317    0.5327580254
C        3.2073879465    0.0798342087    0.8247024574
C        4.6683544081    1.0387385781   -0.7218734602
C        3.0678341236   -0.8049798137   -0.2164579151
C        0.9079581289   -1.8323410916    0.0849231611
C        0.1754715318   -0.6184711049   -0.4568917711
C        2.9176081024   -3.2106740193    0.1334333723
N        2.2560914491   -1.9598233817   -0.2820196592
O        0.3622866447   -2.6540382470    0.8106832887
S        4.0612930261   -0.3375608494   -1.5820788788
H        4.3723019856    1.9336870545    1.2281323123
H        2.6770422221   -0.0354136467    1.7648703044
H        5.3970098060    1.6910712482   -1.1864002075
H       -0.0431255177    0.0719515193    0.3626199310
H       -0.7807539213   -0.9613882204   -0.8603247428
H        0.7357920271   -0.0869858348   -1.2271419628
H        2.2824068127   -4.0559114654   -0.1333103492
H        3.0951372491   -3.2324096418    1.2146237464
H        3.8712905161   -3.2853256854   -0.3923829410
19   
Generated by ForceBalance from scan.xyz: Frame 4 of 24
C        4.2293895610    1.1294832947    0.4994661510
C        3.2939199327    0.0891454008    0.7956407869
C        4.7719393930    1.0152158508   -0.7553682264
C        3.1368776037   -0.7957045792   -0.2437094405
C        1.0006869946   -1.7535587703    0.2308802955
C        0.1691643135   -0.6671729152   -0.4210605402
C        2.9656666082   -3.1846856076    0.1062685420
N        2.2968228642   -1.9334272603   -0.3091423670
O        0.5901176583   -2.4291639887    1.1628921438
S        4.1328245536   -0.3485785633   -1.6137633887
H        4.4976144807    1.9193295881    1.1933448513
H        2.7636603371   -0.0146323526    1.7371231201
H        5.5163185340    1.6488625773   -1.2207725027
H       -0.3343737169   -0.0775800999    0.3478233748
H       -0.6038423295   -1.1592793307   -1.0214731307
H        0.7555098130   -0.0166229418   -1.0709033955
H        2.2966541097   -4.0259080238   -0.0814461189
H        3.2276998977   -3.1720062251    1.1699087503
H        3.8722220899   -3.3006306696   -0.4907667615
19   
Generated by ForceBalance from scan.xyz: Frame 5 of 24
C        4.3150494423    1.1431483647    0.4811569548
C        3.3560151864    0.1194445518    0.7615219675
C        4.8549363974    1.0379521047   -0.7754121335
C        3.1796722535   -0.7449362533   -0.2925843393
C        1.0578595899   -1.6404089323    0.2617115869
C        0.1335711012   -0.7055744381   -0.4852890387
C        2.9726739118   -3.1255743406    0.0296700812
N        2.3142447681   -1.8649677800   -0.3866049949
O        0.7821232938   -2.1443600489    1.3372485462
S        4.1824817295   -0.2955436188   -1.6567099705
H        4.6012572834    1.9148272708    1.1882354198
H        2.8260989420    0.0115099120    1.7023978744
H        5.6144660346    1.6612497112   -1.2301626216
H       -0.5656379938   -0.2361566929    0.2080442283
H       -0.4360013289   -1.2987920577   -1.2101569951
H        0.6907060990    0.0506543835   -1.0420628733
H        2.2774938170   -3.9548849984   -0.1163033625
H        3.2827628018   -3.1006485323    1.0798201126
H        3.8477611688   -3.2763660521   -0.6055645466
19   
Generated by ForceBalance from scan.xyz: Frame 6 of 24
C        4.3833832431    1.1319715643    0.5176840535
C        3.3944120949    0.1323523007    0.7832331367
C        4.9307411931    1.0237438610   -0.7349056291
C        3.2043469409   -0.7199864308   -0.2789327369
C        1.0825927408   -1.5685495268    0.3137318027
C        0.0526736171   -0.8215085726   -0.4966146754
C        2.9476018918   -3.1000450324   -0.0196261007
N        2.3114925767   -1.8167199717   -0.4095109506
O        0.9350042119   -1.8875027984    1.4785967712
S        4.2267687061   -0.2818774587   -1.6338946047
H        4.6846519802    1.8891366059    1.2342330405
H        2.8574138483    0.0311190420    1.7200888807
H        5.7119505506    1.6287321285   -1.1774815695
H       -0.7343846120   -0.4317099469    0.1499766571
H       -0.3827890096   -1.5081017122   -1.2314029489
H        0.5288433698   -0.0124059198   -1.0574544996
H        2.2379595325   -3.9140002436   -0.1887987540
H        3.2596898856   -3.1059488697    1.0303494769
H        3.8184259296   -3.2547888175   -0.6596725880
19   
Generated by ForceBalance from scan.xyz: Frame 7 of 24
C        4.5376671046    1.2933274690    0.6214294848
C        3.5997510222    0.3311320156    1.1108963918
C        5.0045429693    1.0055408230   -0.6336096841
C        3.3534865988   -0.6768234738    0.2111918260
C        1.0520745158   -1.2649495798    0.4551717130
C        0.1493706225   -1.4876475924   -0.7431363318
C        2.6486364452   -2.8950565261   -0.5076621237
N        2.4146445837   -1.7247314669    0.3431045341
O        0.6532383672   -0.7721861117    1.4904601152
S        4.2796830299   -0.4384500002   -1.2727085741
H        4.8758576852    2.1495030778    1.1961822137
H        3.1149201661    0.3692648860    2.0791862391
H        5.7611708380    1.5239717040   -1.2083131202
H       -0.7889965728   -0.9584042495   -0.5768771524
H       -0.0669094574   -2.5518728377   -0.8778898419
H        0.6266432064   -1.1290249851   -1.6610071629
H        1.9566293487   -3.6921900578   -0.2284071815
H        3.6641137518   -3.2526001679   -0.3241042487
H        2.5401517629   -2.6935171796   -1.5838543100
19   
Generated by ForceBalance from scan.xyz: Frame 8 of 24
C        4.6484736039    1.3341908821    0.6622559877
C        3.6333236198    0.4227372111    1.0927776782
C        5.1886935225    1.0110128836   -0.5535300907
C        3.4047213572   -0.5810177666    0.1842116361
C        1.0773821042   -1.1407403024    0.4121206081
C        0.0549786327   -1.6077175203   -0.6093064260
C        2.6536406869   -2.7644201029   -0.6023935858
N        2.4195659298   -1.5939326341    0.2481722282
O        0.7550747977   -0.4845891810    1.3866902571
S        4.4455394263   -0.4080094426   -1.2274830703
H        4.9822382857    2.1825704754    1.2509903562
H        3.0823188994    0.4965546191    2.0217746463
H        6.0015851779    1.4910255832   -1.0828548051
H       -0.8443210703   -1.0047392151   -0.4825545801
H       -0.2100324627   -2.6565281147   -0.4403578262
H        0.4259091933   -1.5172079594   -1.6343957195
H        1.9336428417   -3.5466686953   -0.3594719734
H        3.6521084085   -3.1506657602   -0.3870029149
H        2.5889513546   -2.5465164763   -1.6781723842
19   
Generated by ForceBalance from scan.xyz: Frame 9 of 24
C        4.6967713876    1.3318238416    0.7014995688
C        3.6034255797    0.4771836082    1.0495925064
C        5.3332261178    0.9605604711   -0.4518886248
C        3.4160573340   -0.5346973850    0.1392498530
C        1.0713130050   -1.0971016999    0.3441981842
C       -0.0150189005   -1.7441156173   -0.4995117025
C        2.6522266995   -2.6877802712   -0.7275688705
N        2.3996593705   -1.5169834931    0.1169222138
O        0.7951281625   -0.3210401340    1.2467328098
S        4.5937075839   -0.4400039973   -1.1664984056
H        5.0095593767    2.1789704896    1.3034033007
H        2.9731336872    0.5975629088    1.9201233483
H        6.2075521378    1.3979857307   -0.9160512561
H       -0.9201855360   -1.1489093612   -0.3780516160
H       -0.2266927698   -2.7589088621   -0.1460609008
H        0.2514900569   -1.8039694519   -1.5583694155
H        1.9220030168   -3.4670942013   -0.5121817715
H        3.6411814220   -3.0828391968   -0.4861371560
H        2.6194830259   -2.4589711533   -1.8018298412
19   
Generated by ForceBalance from scan.xyz: Frame 10 of 24
C        4.7103547368    1.3245399002    0.7355103885
C        3.5558134983    0.5236613246    1.0046299824
C        5.4131804021    0.9184383576   -0.3662082908
C        3.3930248309   -0.4881854573    0.0880828187
C        1.0383047958   -1.0574449268    0.2757408947
C       -0.0738958691   -1.8469313799   -0.3976019492
C        2.6252669200   -2.6249914569   -0.8327048202
N        2.3549194555   -1.4400893230   -0.0139368129
O        0.7840247696   -0.1763201836    1.0870554915
S        4.6678855044   -0.4541192699   -1.1259269342
H        5.0131062755    2.1629023210    1.3546043982
H        2.8686684958    0.6838828273    1.8229258421
H        6.3342962683    1.3177604231   -0.7702410264
H       -1.0011980209   -1.2973802928   -0.2362747100
H       -0.1816239765   -2.8377574204    0.0566805824
H        0.0920036287   -1.9826571205   -1.4700485836
H        1.8948811133   -3.4037427078   -0.6204919154
H        3.6110947144   -3.0151652162   -0.5716726278
H        2.6080403353   -2.4063137448   -1.9087776453
19   
Generated by ForceBalance from scan.xyz: Frame 11 of 24
C        4.7408787721    1.3364178759    0.7595614884
C        3.5223865778    0.6070153595    0.9300665248
C        5.5314764969    0.8575289419   -0.2492491034
C        3.4022541911   -0.4321195563    0.0352352135
C        1.0461825004   -1.0280460594    0.2254763400
C       -0.0682855028   -1.9315207255   -0.2831098643
C        2.6406404485   -2.5467737357   -0.9490277252
N        2.3499357935   -1.3550798955   -0.1472089979
O        0.7942556978   -0.0744377040    0.9541155239
S        4.7980318196   -0.5051276834   -1.0358904734
H        5.0192732249    2.1832491872    1.3786117458
H        2.7647565378    0.8369990175    1.6638107109
H        6.5050320840    1.2012836917   -0.5733416362
H       -1.0101329364   -1.4419864331   -0.0364850396
H       -0.0480768946   -2.9073857099    0.2138405527
H       -0.0179825193   -2.0989661504   -1.3628447583
H        1.8823134559   -3.3085069983   -0.7867040404
H        3.6008850697   -2.9640716422   -0.6374445716
H        2.6881022119   -2.3174210789   -2.0212109035
19   
Generated by ForceBalance from scan.xyz: Frame 12 of 24
C        4.7624046077    1.3750494373    0.7165295503
C        3.4589109923    0.7875486228    0.7206183899
C        5.6813521500    0.6747771517   -0.0158247471
C        3.4020626291   -0.3729927792   -0.0222497126
C        1.0621060449   -1.0217660196    0.2565368497
C       -0.0395784443   -2.0217784353   -0.0707153513
C        2.6169443892   -2.4099975100   -1.1275298696
N        2.3266288805   -1.2526803676   -0.2776150967
O        0.8209820521   -0.0517496899    0.9690552754
S        4.9732066578   -0.7388815053   -0.7301274042
H        5.0013678755    2.2920723047    1.2456203845
H        2.6048054763    1.1916435737    1.2403384677
H        6.7276300028    0.8918507218   -0.1863247193
H       -0.9393990745   -1.6688180430    0.4322103896
H        0.1934879819   -3.0280546185    0.2914005756
H       -0.2383871687   -2.0818739873   -1.1453714531
H        1.7301915893   -3.0199602266   -1.2616752971
H        3.3948713094   -3.0331785918   -0.6733844901
H        2.9602247265   -2.0834232959   -2.1150628628
19   
Generated by ForceBalance from scan.xyz: Frame 13 of 24
C        4.7127171046    1.3977099236    0.6668725332
C        3.3834717520    0.9044344451    0.4781889492
C        5.6850680468    0.5315759816    0.2468397500
C        3.3637910191   -0.3485667097   -0.0915076946
C        1.0662982433   -1.0694601182    0.2881979065
C        0.0561646877   -2.1952566367    0.1173640872
C        2.5329543842   -2.3149771438   -1.3011904889
N        2.2711666381   -1.1854812652   -0.4049465026
O        0.8048009466   -0.0957041476    0.9861720241
S        4.9988873001   -0.9316168282   -0.3870236321
H        4.9312942731    2.3719054022    1.0923328732
H        2.4849512145    1.4345743937    0.7554871589
H        6.7595130493    0.6603095213    0.2497877739
H       -0.7375726548   -2.0213318204    0.8435028409
H        0.4919401322   -3.1842620014    0.2857436894
H       -0.3865626608   -2.1845708015   -0.8844178276
H        1.6011887197   -2.7072169159   -1.7006892148
H        3.0690056316   -3.1260742330   -0.7920696729
H        3.1363480510   -1.9720040519   -2.1447458401
19   
Generated by ForceBalance from scan.xyz: Frame 14 of 24
C        4.6926143107    1.3642698267    0.6769506245
C        3.3605590864    0.9417704701    0.3704888194
C        5.6450652290    0.4265175828    0.3834843059
C        3.3196026546   -0.3292842565   -0.1521445312
C        1.0314441166   -1.0406736725    0.2506428392
C        0.1202887214   -2.2584406457    0.2279306365
C        2.4520637741   -2.2525273361   -1.3978531930
N        2.1993170277   -1.1058293156   -0.5211160997
O        0.7150820925   -0.0277695368    0.8615554391
S        4.9350890754   -1.0207738021   -0.2629203595
H        4.9301645595    2.3412327845    1.0854871432
H        2.4710030190    1.5330491322    0.5333562336
H        6.7206597733    0.4966660320    0.4800714541
H       -0.6105381701   -2.1279399988    1.0259179053
H        0.6628002992   -3.1965761778    0.3751264685
H       -0.4208409053   -2.3253933845   -0.7220235506
H        1.5201368006   -2.6016503802   -1.8389625617
H        2.9299451816   -3.0888333699   -0.8703395074
H        3.1057982924   -1.9346940518   -2.2126189129
19   
Generated by ForceBalance from scan.xyz: Frame 15 of 24
C        4.6964514843    1.3344320228    0.6990785841
C        3.3717472482    0.9729834092    0.2972090870
C        5.6209363559    0.3496109029    0.4784640472
C        3.3067384729   -0.2992948487   -0.2173900974
C        1.0221504243   -0.9901163083    0.1820357609
C        0.2402882477   -2.2859172512    0.3240993750
C        2.4163992764   -2.1820067326   -1.4953754393
N        2.1651370408   -1.0145550304   -0.6458787428
O        0.6219109988    0.0499386081    0.6832473598
S        4.8902874848   -1.0694247744   -0.2082857235
H        4.9520931887    2.3030728679    1.1164084053
H        2.5002943629    1.6071417969    0.3866314432
H        6.6899914367    0.3720304814    0.6453553497
H       -0.4429684680   -2.1640576731    1.1647303141
H        0.8854936974   -3.1527301908    0.4918335982
H       -0.3573925883   -2.4777019712   -0.5734165782
H        1.4831648441   -2.5285363489   -1.9380251946
H        2.8826135904   -3.0165288577   -0.9534527509
H        3.0795110439   -1.8823527579   -2.3095517301
19   
Generated by ForceBalance from scan.xyz: Frame 16 of 24
C        4.6706885073    1.2888716082    0.7326283635
C        3.3660450909    0.9946117093    0.2247562941
C        5.5488398791    0.2454817812    0.6117698243
C        3.2663512715   -0.2836444760   -0.2665639389
C        0.9884757009   -0.9490044096    0.1211498512
C        0.3821574051   -2.3028087451    0.4471772720
C        2.3466742269   -2.1069937602   -1.6006094931
N        2.1090493906   -0.9295396391   -0.7606816291
O        0.4869430979    0.0888021872    0.5156503204
S        4.7936369412   -1.1475638176   -0.1017979118
H        4.9503975522    2.2523208407    1.1464902444
H        2.5280453415    1.6800680338    0.2238603922
H        6.6017353072    0.2138596930    0.8603670399
H       -0.2959378345   -2.1715308430    1.2905875069
H        1.1450320496   -3.0477004046    0.6916011543
H       -0.1968245911   -2.6822206953   -0.4011205423
H        1.4104955596   -2.4283089286   -2.0584866024
H        2.7825775205   -2.9560791486   -1.0547152255
H        3.0310318900   -1.8233898721   -2.4029403367
19   
Generated by ForceBalance from scan.xyz: Frame 17 of 24
C        4.5793780105    1.2063904032    0.7550677861
C        3.3049501245    0.9614663269    0.1543043513
C        5.4188240800    0.1252799877    0.7057076690
C        3.1852030104   -0.3154861726   -0.3367937280
C        0.9159144426   -0.9722980615    0.0107022979
C        0.5506178391   -2.3405187342    0.5538126024
C        2.2695098696   -2.0835242787   -1.7403294458
N        2.0317878870   -0.9058184652   -0.9008342528
O        0.2794384661    0.0267453517    0.2762844230
S        4.6589538751   -1.2434897697   -0.0479771077
H        4.8705795786    2.1622131315    1.1785669909
H        2.4994000115    1.6827793092    0.0843148351
H        6.4510915219    0.0563232821    1.0238390070
H       -0.1974009125   -2.2172447560    1.3371041814
H        1.4344400621   -2.8484647984    0.9534819403
H        0.1330617948   -2.9755086548   -0.2335543804
H        1.3391765761   -2.3728247519   -2.2333405317
H        2.6631322225   -2.9515196855   -1.1905875058
H        2.9890650900   -1.8103951054   -2.5151599715
19   
Generated by ForceBalance from scan.xyz: Frame 18 of 24
C        4.4335250446    1.0121728978    0.6995666387
C        3.1978909868    0.5411755170    0.1526680937
C        5.3880569673    0.0313839691    0.7868642752
C        3.2345858928   -0.7964777808   -0.1636914644
C        0.9138248708   -1.2248391433   -0.2207159801
C        0.5423385633   -1.8737995430    1.0892048762
C        2.2753044742   -1.6708016842   -2.1909563063
N        2.2170459230   -1.6247922470   -0.7085157044
O        0.2269923792   -0.4005633665   -0.7943137750
S        4.7898621893   -1.4997560247    0.2337406295
H        4.6081277154    2.0398343672    1.0011687521
H        2.3239676546    1.1606465917   -0.0171621891
H        6.4088424483    0.1217605743    1.1361488717
H       -0.3072677310   -1.3620266189    1.5427714207
H        1.4006743203   -1.8738249541    1.7668295558
H        0.2821775603   -2.9216254925    0.9013040985
H        1.5021616951   -2.3519168575   -2.5555702132
H        3.2528260630   -2.0623851287   -2.4794152029
H        2.1286649977   -0.6838496532   -2.6429157984
19   
Generated by ForceBalance from scan.xyz: Frame 19 of 24
C        4.3930705530    0.9651166745    0.7588258530
C        3.1688298560    0.5050339132    0.1793389584
C        5.3466324625   -0.0176102538    0.8397692802
C        3.2124535463   -0.8246883337   -0.1661056017
C        0.8942155662   -1.3046485601   -0.2480229791
C        0.6385930285   -1.7885122553    1.1614465327
C        2.2674405970   -1.6370076736   -2.2304694449
N        2.1963371897   -1.6235723512   -0.7505293102
O        0.0822284383   -0.6721374051   -0.9017036959
S        4.7617706060   -1.5351498061    0.2382383006
H        4.5617144792    1.9853671894    1.0874792565
H        2.2952119013    1.1259401213    0.0090859162
H        6.3607428467    0.0650561472    1.2098171841
H       -0.1305088862   -1.1764626657    1.6345456512
H        1.5528626303   -1.7885235320    1.7584279819
H        0.2789543379   -2.8225841431    1.1054568597
H        1.4985718959   -2.3089360909   -2.6173988200
H        3.2504539001   -2.0145639853   -2.5189640503
H        2.1183436755   -0.6401032415   -2.6589546982
19   
Generated by ForceBalance from scan.xyz: Frame 20 of 24
C        4.3068675986    0.9517525422    0.7766530430
C        3.0921193315    0.5041699365    0.1690335380
C        5.2605719043   -0.0319428383    0.8460596654
C        3.1417494506   -0.8162444098   -0.2076604268
C        0.8267490283   -1.3956519701   -0.3130566999
C        0.6532285615   -1.7063576001    1.1600612955
C        2.2148079912   -1.5994244542   -2.3020738558
N        2.1314572002   -1.5916814728   -0.8260942247
O       -0.0902927465   -0.9975856734   -1.0160555224
S        4.6877969585   -1.5338320866    0.1968111870
H        4.4694858920    1.9634958436    1.1333026032
H        2.2185612214    1.1269919188    0.0037399055
H        6.2688760314    0.0422761622    1.2333900615
H        0.0577240295   -0.9232116506    1.6337919550
H        1.6026623930   -1.8260009055    1.6830885708
H        0.0900236812   -2.6430203215    1.2353331465
H        1.4825682817   -2.3054060464   -2.6969084051
H        3.2190800330   -1.9207703201   -2.5847536845
H        2.0151567694   -0.6091235689   -2.7258785333
19   
Generated by ForceBalance from scan.xyz: Frame 21 of 24
C        4.2025930802    0.9559767082    0.8180424686
C        3.0025103134    0.5020297278    0.1871775621
C        5.1628629008   -0.0208373710    0.8981242369
C        3.0681059830   -0.8152186478   -0.1961563305
C        0.7841574396   -1.5796960635   -0.2982719866
C        0.6863954602   -1.7140503467    1.2103629138
C        2.1549795253   -1.6000001670   -2.3134674864
N        2.0779716350   -1.5904543590   -0.8407837443
O       -0.2060728905   -1.4584364505   -1.0084884501
S        4.6155810094   -1.5209860186    0.2252798460
H        4.3503299639    1.9662341176    1.1851761841
H        2.1263610563    1.1187401655    0.0125488558
H        6.1619484418    0.0578767182    1.3078725021
H        0.3456652322   -0.7677635150    1.6398907516
H        1.6304033118   -1.9954700514    1.6787347671
H       -0.0767434870   -2.4659372605    1.4271817487
H        1.4831628914   -2.3665220792   -2.7009868728
H        3.1824412939   -1.8297994809   -2.6016970959
H        1.8653764105   -0.6321148966   -2.7380681467
19   
Generated by ForceBalance from scan.xyz: Frame 22 of 24
C        4.2998307616    1.2568594583    0.4354337019
C        3.4411265916    0.2384433514    0.9544889694
C        4.5718199395    1.0918166134   -0.8990999599
C        3.0655426232   -0.6818375106    0.0094349296
C        0.9742488566   -1.8727749505   -0.3645781134
C        0.2579180810   -0.5449836546   -0.5264248033
C        2.9602677169   -3.1082366606    0.3311646235
N        2.2556058233   -1.8229421513    0.1925687274
O        0.4740248395   -2.9381649779   -0.7070177949
S        3.7902849794   -0.3091319793   -1.5516451951
H        4.6967089659    2.0761324116    1.0257012232
H        3.1017299425    0.1804265124    1.9836479780
H        5.1876116836    1.7142251444   -1.5362511293
H        0.4690463370    0.1436296606    0.2940587640
H       -0.8123611343   -0.7442841431   -0.5913175831
H        0.5766738055   -0.0615875296   -1.4554987932
H        2.2761494376   -3.8445214890    0.7533545227
H        3.8112462466   -2.9606588263    0.9982490074
H        3.3158746027   -3.4811866717   -0.6366739258
19   
Generated by ForceBalance from scan.xyz: Frame 23 of 24
C        4.2308419349    1.2354718279    0.4624191148
C        3.3726617137    0.2025111430    0.9531104157
C        4.5667865084    1.0639362935   -0.8566474653
C        3.0593093891   -0.7336118178    0.0008030790
C        0.9226758959   -1.9066229106   -0.2321420916
C        0.2643651026   -0.5603829963   -0.4741616477
C        2.9502964400   -3.1695684336    0.3309753369
N        2.2614845300   -1.8841982838    0.1503936116
O        0.3175939640   -2.9671246390   -0.3538564265
S        3.8424723516   -0.3578361392   -1.5300283623
H        4.5848004555    2.0672703002    1.0624042414
H        2.9920742180    0.1452629918    1.9678738625
H        5.2007077931    1.6917266286   -1.4703116216
H        0.4206053422    0.1224729577    0.3644646949
H       -0.8017035625   -0.7307321424   -0.6238923804
H        0.6805143035   -0.0804632097   -1.3652016545
H        2.2507840630   -3.8860155329    0.7611125697
H        3.7971871673   -3.0182332204    1.0029431566
H        3.3137323830   -3.5675494058   -0.6241090254
19   
Generated by ForceBalance from scan.xyz: Frame 24 of 24
C        4.2150208444    1.2419445146    0.4136580631
C        3.3639723310    0.1929376432    0.8819553765
C        4.5864974785    1.0782795620   -0.8969285879
C        3.0909175017   -0.7465431310   -0.0799380809
C        0.9281283981   -1.9047701138   -0.1245895017
C        0.2898611257   -0.5621669420   -0.4352858657
C        3.0072306357   -3.1727833903    0.3057428546
N        2.3091620124   -1.9095961921    0.0417568173
O        0.2654642244   -2.9320343618   -0.0137698258
S        3.9011122542   -0.3533165442   -1.5901187814
H        4.5408350439    2.0778008696    1.0238643863
H        2.9621140895    0.1270505504    1.8880822578
H        5.2262112140    1.7167450747   -1.4932658487
H        0.3725814922    0.1141782670    0.4202084912
H       -0.7631084613   -0.7377029699   -0.6549837887
H        0.7699572447   -0.0698512740   -1.2850940147
H        2.2588423122   -3.9558247480    0.4211536119
H        3.6014295452   -3.0860188520    1.2204033277
H        3.6738035753   -3.4236843091   -0.5265135463
