52

C      3.77755   -0.39195    1.85081
C      2.60821    0.34094    2.07156
C     -2.78929    0.23574   -0.92572
C     -3.05069   -0.76559    1.23826
C      2.01661    0.09549   -0.27318
C     -1.61473    0.86874   -0.51625
C      4.08702   -0.89029    0.58890
C     -3.53197   -0.57602   -0.05942
C     -1.86571   -0.15853    1.66372
C      3.19897   -0.64197   -0.47717
C      1.72515    0.59666    1.02165
C     -1.13310    0.67976    0.79747
C      0.98294    0.25052   -1.33426
C      8.76361   -1.46209    0.07362
C      7.67159   -1.51536   -0.70670
C     -0.86933    1.71764   -1.52411
C     -4.78811   -1.26838   -0.53196
C      7.60598   -2.37664   -1.94407
C     -0.54540   -1.45504    3.12522
C      3.34642   -0.46575   -2.90786
C      6.41795   -0.74635   -0.36109
C      5.36781   -1.65305    0.33336
O      0.51868   -0.64709   -2.00900
O      0.55744    1.54070   -1.39920
O      5.86684   -2.13035    1.58265
O     -1.46532   -0.36474    2.96356
O      3.59135   -1.16332   -1.67977
S      0.27726    1.57910    1.46418
H      4.45790   -0.59955    2.66961
H      2.36419    0.69219    3.06947
H     -3.12464    0.36547   -1.95268
H     -3.58903   -1.38775    1.94908
H      8.80582   -0.81475    0.94704
H      9.65729   -2.03860   -0.15517
H     -1.19643    1.47715   -2.53867
H     -1.01559    2.78456   -1.33915
H     -4.54639   -2.23096   -0.99838
H     -5.47117   -1.46679    0.29878
H     -5.31949   -0.66783   -1.27603
H      6.75292   -3.06424   -1.90681
H      8.51697   -2.96514   -2.08088
H      7.46304   -1.75097   -2.83395
H     -0.28392   -1.47949    4.18476
H      0.35892   -1.30354    2.52784
H     -1.01691   -2.40380    2.83880
H      4.20933   -0.67107   -3.54636
H      3.26961    0.61369   -2.73861
H      2.43407   -0.82979   -3.38293
H      5.96851   -0.32901   -1.26701
H      6.64373    0.07989    0.32001
H      5.14316   -2.50114   -0.32516
H      6.77659   -2.43778    1.42475
