19   

C        2.1670136607   -0.4885450482   -0.0248290516
C        0.8667347109   -0.3835903079    0.4526153439
C        3.1485067849   -1.0993539992    0.7575350554
C        0.5593290908   -0.8885955880    1.7143608926
C        3.8455313697   -3.0606837313    3.9269558844
C        6.1165535516   -2.6573390531    3.1789163114
C        2.8595678527   -1.6261686417    2.0394869149
C        1.5354982797   -1.5023338787    2.5111865296
C        3.9436541638   -2.2531196598    2.8176715337
N        5.2559536655   -2.0428233336    2.4045458545
O        1.1466514548   -1.9387538336    3.7453341298
S        5.4111197221   -3.5708182542    4.4988672253
H        2.4214720238   -0.0965155055   -1.0030176405
H        0.1007713792    0.0908997385   -0.1511294966
H        4.1511203984   -1.1633232558    0.3488858295
H       -0.4569956319   -0.7933608465    2.0757299947
H        2.9212883051   -3.3667613570    4.3938447961
H        7.1866665550   -2.6074577079    3.0149791889
H        0.2151392509   -1.7095229995    3.9017905640
19   

C        2.1435889509   -0.5681230586   -0.0585202600
C        0.8650159565   -0.3924083390    0.4603202761
C        3.1269634140   -1.1929309605    0.7111480454
C        0.5807644957   -0.8386838579    1.7508688366
C        3.8234142215   -3.2201148451    3.7912724948
C        6.1011834821   -2.5353378405    3.3018531262
C        2.8553042259   -1.6653321477    2.0135402712
C        1.5598704631   -1.4652098420    2.5330394600
C        3.9427949656   -2.2888855373    2.7904260251
N        5.2532108141   -1.9092502586    2.5217701331
O        1.2180335933   -1.8460220634    3.8001118735
S        5.3794295824   -3.6590932252    4.4425737644
H        2.3792515672   -0.2180022523   -1.0570900330
H        0.0985678652    0.0939167977   -0.1332969842
H        4.1182577579   -1.3137743133    0.2872644406
H       -0.4160765791   -0.6866837157    2.1455135586
H        2.8837124369   -3.6343885211    4.1291992490
H        7.1713030409   -2.3731061161    3.2465892033
H        0.3158423113   -1.5491281493    4.0063675241
19   

C        2.1117994095   -0.6269006070   -0.0850661692
C        0.8597471644   -0.3830857131    0.4738528163
C        3.0969971328   -1.2689344710    0.6687554868
C        0.6036276313   -0.7768485149    1.7885319531
C        3.8160945361   -3.3498643216    3.6511795425
C        6.0543156712   -2.4236832881    3.4473911061
C        2.8463203669   -1.6940259874    1.9875803346
C        1.5852664876   -1.4203775326    2.5526846005
C        3.9396097116   -2.3151981969    2.7622582456
N        5.2205586247   -1.7880727791    2.6590529346
O        1.2896816134   -1.7620540400    3.8427288917
S        5.3477313822   -3.7278056864    4.3922662127
H        2.3253992630   -0.3135749839   -1.1006690888
H        0.0927608557    0.1171933285   -0.1073353325
H        4.0740970041   -1.4396514215    0.2291139559
H       -0.3703788642   -0.5714815276    2.2147307986
H        2.8812780630   -3.8506060936    3.8648030825
H        7.1044708111   -2.1640682355    3.5130901685
H        0.4178171605   -1.4116909973    4.0907499214
19   

C        2.0836865432   -0.6758158629   -0.1004905901
C        0.8617519088   -0.3717024318    0.4973462523
C        3.0776857539   -1.3228797017    0.6380590849
C        0.6440823871   -0.7094055151    1.8353341658
C        3.8548284430   -3.4622141031    3.4858444620
C        6.0046390719   -2.3321321271    3.6158256040
C        2.8593909276   -1.6939537230    1.9760559761
C        1.6346546934   -1.3581410415    2.5827173849
C        3.9601996289   -2.3158469467    2.7465701108
N        5.1844305678   -1.6688644254    2.8359197104
O        1.3888273389   -1.6580721911    3.8933396942
S        5.3482190425   -3.8072711916    4.3157540494
H        2.2667826438   -0.4040921248   -1.1338809448
H        0.0885889554    0.1324230115   -0.0722140343
H        4.0350362458   -1.5387111179    0.1757100089
H       -0.3052750944   -0.4580955939    2.2914600214
H        2.9497075900   -4.0509736606    3.5522827972
H        7.0149307551   -1.9953980769    3.8169655885
H        0.5452618438   -1.2667286253    4.1749843709
19   

C        2.0516121011   -0.7300318612   -0.1249530954
C        0.8617460351   -0.3592452519    0.5012918699
C        3.0523838127   -1.3743170905    0.6074277696
C        0.6811951244   -0.6294900500    1.8605875021
C        3.9141953667   -3.5735411540    3.2568948838
C        5.9224152178   -2.3051726070    3.7862405037
C        2.8696401018   -1.6710326223    1.9676633929
C        1.6780546159   -1.2756505601    2.6013596980
C        3.9665434874   -2.3096999314    2.7380638445
N        5.1076812493   -1.5869788673    3.0506410465
O        1.4734553387   -1.5233365968    3.9296516491
S        5.3606426304   -3.9307749584    4.1616847135
H        2.2035491639   -0.5129633840   -1.1761739373
H        0.0837749787    0.1424140263   -0.0638867721
H        3.9844576269   -1.6451880151    0.1233709979
H       -0.2438743040   -0.3304587008    2.3373472587
H        3.0718661268   -4.2401928331    3.1301646953
H        6.8743136703   -1.9254044856    4.1386589790
H        0.6554404611   -1.0941320604    4.2301098583
19   

C        1.9971517135   -0.8307554495   -0.1428235794
C        0.8440690935   -0.3838262292    0.5031794700
C        3.0098614673   -1.4538189914    0.5916967098
C        0.7088129772   -0.5621786307    1.8830687812
C        4.0408609638   -3.6378935398    2.9839238842
C        5.8406342469   -2.3042895006    3.9369302593
C        2.8781835428   -1.6409143705    1.9766401346
C        1.7169939043   -1.1868164688    2.6268477622
C        3.9672859016   -2.2933378156    2.7492391525
N        4.9962522580   -1.5378159956    3.2890694381
O        1.5526936402   -1.3594047407    3.9724074771
S        5.4534104124   -4.0218747556    3.9305652308
H        2.1097760062   -0.6910997143   -1.2119869778
H        0.0571865430    0.1014908239   -0.0639332860
H        3.9100827462   -1.7908804253    0.0895309062
H       -0.1910604952   -0.2119716051    2.3730213006
H        3.3076143792   -4.3514361544    2.6329623890
H        6.7172321650   -1.9097085836    4.4373334283
H        0.7585971619   -0.8914307697    4.2782459380
19   

C        1.9280926371   -0.9459567132   -0.1465786736
C        0.8174029159   -0.4163465306    0.5105535570
C        2.9494916943   -1.5520710263    0.5898659089
C        0.7301068504   -0.5009194790    1.9029728612
C        4.2057611517   -3.6350099524    2.7252017881
C        5.7567987006   -2.3159967823    4.0592404839
C        2.8753465032   -1.6291669692    1.9902385441
C        1.7468023918   -1.1080356186    2.6498544149
C        3.9591757243   -2.2904790903    2.7581762694
N        4.8570645726   -1.5413047855    3.5026292095
O        1.6182996558   -1.2002380645    4.0071404012
S        5.5971792297   -4.0315711310    3.6976816438
H        2.0001784513   -0.8848309576   -1.2265785899
H        0.0239037715    0.0564068799   -0.0579589467
H        3.8136584854   -1.9577226606    0.0753240311
H       -0.1411958564   -0.0943480657    2.4009667592
H        3.6068889934   -4.3446430335    2.1704377527
H        6.5478307384   -1.9275400409    4.6900138664
H        0.8526084703   -0.6861051795    4.3103010234
19   

C        1.8594148026   -1.0479788576   -0.1418183396
C        0.7927374395   -0.4435762932    0.5219155815
C        2.8860332546   -1.6479808627    0.5918235818
C        0.7532856196   -0.4501887158    1.9184284560
C        4.3649495839   -3.5874947917    2.5343043214
C        5.6663092345   -2.3423841562    4.1705280206
C        2.8662811032   -1.6427521757    1.9977907942
C        1.7750061765   -1.0507923570    2.6642081135
C        3.9567111300   -2.2996638409    2.7525972833
N        4.7180897646   -1.5891791959    3.6682852435
O        1.6769058219   -1.0713314232    4.0270003365
S        5.7297055082   -3.9855035997    3.5432770414
H        1.8935248067   -1.0493395303   -1.2254234742
H       -0.0049169528    0.0250569408   -0.0441973788
H        3.7150050206   -2.1094116352    0.0666323788
H       -0.0872025081    0.0105831486    2.4221467745
H        3.8928618444   -4.2602187307    1.8311344343
H        6.3673483816   -1.9769946648    4.9118224559
H        0.9403432318   -0.5129043585    4.3227848412
19   

C        1.7952632416   -1.1383989950   -0.1359380314
C        0.7723147465   -0.4642206294    0.5264189419
C        2.8224368271   -1.7376497056    0.5966860459
C        0.7776752124   -0.4008186709    1.9209754532
C        4.4971948882   -3.5238015088    2.3966495951
C        5.5694666562   -2.4038012117    4.2698783764
C        2.8506293493   -1.6674839402    2.0033414641
C        1.7998531746   -1.0001818740    2.6679779281
C        3.9562470365   -2.3126776686    2.7405260045
N        4.5880996783   -1.6747531811    3.7975188343
O        1.7244625727   -0.9485154771    4.0313556182
S        5.8277007603   -3.9355811674    3.4450226839
H        1.7962154870   -1.1933354918   -1.2187058726
H       -0.0261373981    0.0044750607   -0.0385309112
H        3.6173561585   -2.2459823276    0.0627258339
H       -0.0309833460    0.1139331982    2.4245321366
H        4.1347526751   -4.1427747230    1.5873337280
H        6.1830380774   -2.0827775815    5.1035064990
H        1.0096012011   -0.3551248542    4.3107110070
19   

C        1.7318372588   -1.2157208367   -0.1149190616
C        0.7459222813   -0.4881638055    0.5430234515
C        2.7646014957   -1.8071145462    0.6152337290
C        0.7961846995   -0.3622872139    1.9309332811
C        4.6334764193   -3.4271526468    2.2959493198
C        5.4842027851   -2.4757248029    4.3629481338
C        2.8386540050   -1.6842870509    2.0199404236
C        1.8242885417   -0.9527560100    2.6779826754
C        3.9683649781   -2.3099472105    2.7363910260
N        4.4733464975   -1.7747401751    3.9121727520
O        1.7721990603   -0.8251312734    4.0373559255
S        5.9294255063   -3.8610493659    3.3781504569
H        1.7013067157   -1.3170843520   -1.1939223089
H       -0.0573504698   -0.0248863495   -0.0195781861
H        3.5285648017   -2.3479185029    0.0694356977
H        0.0157690652    0.1968027095    2.4317889508
H        4.3773550519   -3.9809139948    1.4036332325
H        6.0106996548   -2.2175255507    5.2743088053
H        1.0635986970   -0.2157868011    4.2964904634
19   

C        1.6719301194   -1.2958741148   -0.0962389872
C        0.7195526709   -0.5206319629    0.5520666310
C        2.7137341062   -1.8726747863    0.6319011438
C        0.8156652901   -0.3300248974    1.9283898546
C        4.7709528711   -3.3079008633    2.2146155064
C        5.3904264582   -2.5887309752    4.4473136494
C        2.8346265341   -1.6949446439    2.0310778532
C        1.8538211163   -0.9038042587    2.6755777406
C        3.9803939545   -2.3091725007    2.7348592227
N        4.3552206230   -1.9157162088    4.0113073160
O        1.8352305694   -0.6840068160    4.0238384794
S        6.0240564575   -3.7833732912    3.3294113424
H        1.6087523527   -1.4466790477   -1.1680476654
H       -0.0913374118   -0.0684965518   -0.0086947938
H        3.4417934482   -2.4480233063    0.0749826057
H        0.0627244680    0.2715894891    2.4220083930
H        4.6360020618   -3.7687458426    1.2472384556
H        5.8247158293   -2.4196879241    5.4257004793
H        1.1170302465   -0.0779154482    4.2624193635
19   

C        1.6188221069   -1.3746885573   -0.0698341448
C        0.6996166103   -0.5525249760    0.5659363935
C        2.6724576674   -1.9334012133    0.6549729924
C        0.8426653279   -0.2952911842    1.9262832345
C        4.9221541781   -3.1372737919    2.1610290181
C        5.2636926808   -2.7553280914    4.5308187089
C        2.8437008402   -1.6895366984    2.0406820030
C        1.8946340882   -0.8476209916    2.6708981702
C        3.9840958599   -2.3153326925    2.7462179541
N        4.2054504137   -2.1154235975    4.1015566806
O        1.9316184732   -0.5238152191    3.9975693920
S        6.1143216057   -3.6826263075    3.3102950622
H        1.5171510358   -1.5819730650   -1.1291883725
H       -0.1214056155   -0.1153337086    0.0080605454
H        3.3539696884   -2.5646601307    0.1016631061
H        0.1179702467    0.3481144387    2.4093862965
H        4.9448567906   -3.4274079992    1.1217841783
H        5.5898050809   -2.7150219821    5.5635054002
H        1.1942563228    0.0616309965    4.2286365885
19   

C        1.5756664471   -1.4584748999   -0.0467070523
C        0.6884161745   -0.5879370861    0.5723792845
C        2.6400387718   -1.9991265015    0.6765196656
C        0.8749935331   -0.2620325447    1.9135722918
C        5.0438391276   -2.9391119698    2.1382301980
C        5.1401746308   -2.9387316856    4.5624601147
C        2.8524463632   -1.6844867359    2.0402538617
C        1.9398169773   -0.7938169836    2.6542735456
C        3.9818756343   -2.3175588396    2.7538159092
N        4.0602336826   -2.3312744354    4.1388685593
O        2.0525044002   -0.3816209205    3.9519111788
S        6.1826495154   -3.5674958267    3.2989956009
H        1.4366686368   -1.7221909874   -1.0891275988
H       -0.1415153841   -0.1659551205    0.0159911217
H        3.2882174188   -2.6899395750    0.1531637714
H        0.1792985534    0.4228686252    2.3820149195
H        5.1845072554   -3.0197497545    1.0704640370
H        5.3725077641   -3.0464431692    5.6154768548
H        1.3048802828    0.1846642434    4.1977916484
19   

C        2.0376316878   -0.4603493719    0.0386728124
C        0.7799031293   -0.3354778394    0.6190389831
C        3.0744198552   -1.0692540589    0.7484385614
C        0.5689172195   -0.8157567300    1.9111402192
C        5.3266798914   -1.9331017265    2.5160748367
C        4.9375979780   -3.6935759904    4.1441839439
C        2.8792801933   -1.5699764579    2.0541494782
C        1.6001353876   -1.4262038984    2.6375555159
C        4.0058221477   -2.2274820184    2.7466454074
N        3.8026419027   -3.2410719359    3.6713969207
O        1.3246005718   -1.8231253030    3.9156188269
S        6.3768817470   -2.9280425647    3.4887381457
H        2.2097933822   -0.0912404150   -0.9661012338
H       -0.0295421549    0.1347196119    0.0712199007
H        4.0355501973   -1.1704949785    0.2585526814
H       -0.4118278674   -0.7014018992    2.3556051554
H        5.6744810246   -1.1697850221    1.8342682096
H        4.9857690013   -4.4856102397    4.8822929333
H        0.3782857627   -1.7294029054    4.1060632663
19   

C        2.0238896569   -0.5515169123   -0.0100162537
C        0.7818241759   -0.3666931548    0.5922417279
C        3.0620949699   -1.1521394841    0.7057598420
C        0.5875271920   -0.7762729662    1.9125644991
C        5.3007594504   -1.8001265014    2.6558351365
C        4.9480854974   -3.7768958665    4.0274330797
C        2.8761670080   -1.5861203729    2.0330091111
C        1.6211216055   -1.3768272286    2.6427084933
C        3.9996448211   -2.2186634689    2.7538679696
N        3.8134622705   -3.3577751392    3.5227665322
O        1.3867143999   -1.7104299978    3.9468989669
S        6.3599552574   -2.8252245108    3.5865173890
H        2.1824346665   -0.2338892755   -1.0344094555
H       -0.0279021974    0.0972544523    0.0395522166
H        4.0176124156   -1.3000749163    0.2153417744
H       -0.3784434403   -0.6138984348    2.3740913148
H        5.6203183562   -0.9399036576    2.0836590181
H        5.0133227800   -4.6514691365    4.6640855834
H        0.4461983276   -1.6070324615    4.1611738990
19   

C        1.9988866088   -0.6496084532   -0.0468864716
C        0.7808580344   -0.3908072864    0.5800427114
C        3.0375092082   -1.2490996282    0.6700798490
C        0.6102772321   -0.7250687776    1.9257783501
C        5.2499002928   -1.6931707040    2.8212557948
C        4.9785702104   -3.8553783509    3.9039731220
C        2.8697709514   -1.6077844189    2.0193097981
C        1.6449220078   -1.3236910473    2.6551628275
C        3.9906741597   -2.2258010665    2.7621589508
N        3.8499678210   -3.4689838448    3.3602466551
O        1.4504788290   -1.5965968474    3.9799095565
S        6.3261678674   -2.7408765827    3.7061041672
H        2.1384536936   -0.3889179758   -1.0899250914
H       -0.0283969840    0.0724902415    0.0261331143
H        3.9788794539   -1.4527195483    0.1717827944
H       -0.3357354156   -0.5067030140    2.4051923439
H        5.5268186901   -0.7458477141    2.3787988107
H        5.0777188736   -4.7979982276    4.4294448126
H        0.5204457004   -1.4606219711    4.2215778858
19   

C        1.9667014829   -0.7588031665   -0.0876254781
C        0.7778527563   -0.4198811833    0.5586522532
C        3.0063905546   -1.3526360243    0.6330732289
C        0.6362203435   -0.6711137189    1.9262686128
C        5.1634975960   -1.5977477149    3.0336925913
C        5.0291006643   -3.9134770497    3.7715671027
C        2.8668449360   -1.6203856579    2.0047082277
C        1.6725214247   -1.2635770587    2.6578070826
C        3.9855171922   -2.2360653805    2.7606188658
N        3.9215553936   -3.5605277351    3.1647263900
O        1.5137315538   -1.4699788897    3.9992281582
S        6.2594029652   -2.6586951563    3.8777339537
H        2.0827803213   -0.5645382589   -1.1478701831
H       -0.0316690900    0.0393584953    0.0017699958
H        3.9268554060   -1.6193517397    0.1254340353
H       -0.2878093933   -0.3952506241    2.4187482937
H        5.3708295959   -0.5717181211    2.7611751985
H        5.1803876555   -4.9091742706    4.1718239193
H        0.5978152600   -1.2865950894    4.2637815894
19   

C        1.9275083806   -0.8780791058   -0.1229700204
C        0.7746317414   -0.4545058966    0.5389342636
C        2.9746924993   -1.4541171796    0.6015329484
C        0.6739882946   -0.6093037988    1.9246060201
C        5.0344580956   -1.5357150741    3.3047937257
C        5.0908799134   -3.9460575035    3.6409223242
C        2.8824623781   -1.6076483833    1.9937801459
C        1.7184311544   -1.1834384250    2.6589806755
C        3.9972624715   -2.2333371132    2.7517472240
N        4.0352778011   -3.6058348908    2.9408208167
O        1.5982854054   -1.3109331643    4.0141990825
S        6.1371766484   -2.6129728567    4.1186713435
H        2.0094435603   -0.7649067713   -1.1980403716
H       -0.0403219518   -0.0085991034   -0.0208439843
H        3.8655551739   -1.7925698524    0.0838533911
H       -0.2252753696   -0.2758637049    2.4272133633
H        5.1359029690   -0.4604153634    3.2464351680
H        5.3068801834   -4.9750964453    3.9034939864
H        0.6982165435   -1.0799982600    4.2964602564
19   

C        1.8838584702   -0.9847743531   -0.1380537947
C        0.7670293102   -0.4820940039    0.5294004954
C        2.9396743511   -1.5386786806    0.5909531637
C        0.7089844776   -0.5418606509    1.9245470409
C        4.8738753776   -1.5518504095    3.5671597244
C        5.1600390555   -3.9671398463    3.4865346605
C        2.9000273873   -1.5809635377    1.9938930511
C        1.7627685086   -1.0938961785    2.6626528570
C        4.0094630124   -2.2203129983    2.7454646706
N        4.1693332474   -3.5971346177    2.7104604217
O        1.6754592485   -1.1411089813    4.0256388133
S        5.9829657251   -2.6592992469    4.3300190636
H        1.9305915735   -0.9526625974   -1.2206684819
H       -0.0547759476   -0.0530956680   -0.0335574034
H        3.7990845022   -1.9460464016    0.0695027563
H       -0.1663559067   -0.1548891319    2.4310101940
H        4.8453083739   -0.4823078001    3.7261172304
H        5.4519686387   -5.0045244578    3.6011846249
H        0.7899764841   -0.8668190501    4.3160288337
19   

C        1.8660439817   -1.0522180471   -0.1394390868
C        0.7800250554   -0.4777536446    0.5190309917
C        2.9191053560   -1.5969975265    0.5997833304
C        0.7495943336   -0.4593686474    1.9155953826
C        4.7292137710   -1.6237002083    3.7642610725
C        5.2583992141   -3.9562312991    3.3227311423
C        2.9133908422   -1.5578393019    2.0047734382
C        1.8007401122   -1.0028698868    2.6641801094
C        4.0132735737   -2.2063006718    2.7544126991
N        4.3103826039   -3.5406842167    2.5168128188
O        1.7265251626   -0.9791875845    4.0287516196
S        5.8688074266   -2.7503982149    4.4497610537
H        1.8910472367   -1.0842699404   -1.2227680590
H       -0.0402202831   -0.0557909817   -0.0514661774
H        3.7524288175   -2.0623006186    0.0840945679
H       -0.1046028785   -0.0200061670    2.4153891172
H        4.5785145119   -0.6046635497    4.0946377517
H        5.6384625105   -4.9708678028    3.2982107810
H        0.8542003840   -0.6585935477    4.3122047398
19   

C        1.8461863743   -1.1071169367   -0.1407372619
C        0.7901499431   -0.4632094668    0.4992910863
C        2.8880068436   -1.6523381298    0.6131953608
C        0.7793348547   -0.3757840978    1.8925824810
C        4.6017069950   -1.7064187635    3.8999339582
C        5.3778221673   -3.8938477273    3.1775501877
C        2.9038884267   -1.5510405945    2.0175953122
C        1.8188613394   -0.9201350578    2.6572641841
C        3.9978860273   -2.1954652065    2.7720167351
N        4.4428247271   -3.4490842495    2.3721973756
O        1.7458588270   -0.8283555181    4.0190912599
S        5.8003918009   -2.8185732974    4.5034518272
H        1.8578711948   -1.1920146977   -1.2214328752
H       -0.0218659585   -0.0405078072   -0.0823275446
H        3.6977679309   -2.1658294253    0.1054879947
H       -0.0530840047    0.1178371778    2.3783052460
H        4.3495458368   -0.7572008161    4.3534306872
H        5.8564234220   -4.8560168242    3.0371431510
H        0.8896282963   -0.4528265569    4.2841640228
19   

C        1.8195916544   -1.1736508896   -0.1341851852
C        0.8020322111   -0.4579296567    0.4880180685
C        2.8455474320   -1.7322155506    0.6308109902
C        0.8151885246   -0.3112292368    1.8750237384
C        4.4936344181   -1.8275399146    4.0007153991
C        5.5079878032   -3.8231177886    3.0597664753
C        2.8852784093   -1.5821581813    2.0340514310
C        1.8383270413   -0.8688231825    2.6530040658
C        3.9770513763   -2.2214147237    2.7919360845
N        4.5700323002   -3.3641459487    2.2665726251
O        1.7673124386   -0.7126276918    4.0086968684
S        5.7637938775   -2.8972804259    4.5302675112
H        1.8159840849   -1.3018741845   -1.2106650598
H        0.0022136593   -0.0238222870   -0.1020476363
H        3.6252057755   -2.2908292858    0.1238310520
H        0.0116006428    0.2402398252    2.3469018427
H        4.1598281365   -0.9597111411    4.5523514556
H        6.0859224102   -4.7093877943    2.8251479207
H        0.9362078446   -0.2708953073    4.2511306326
19   

C        1.7713228596   -1.2485007571   -0.1249638004
C        0.7974218741   -0.4626229139    0.4780337360
C        2.7841113255   -1.8174699804    0.6490174603
C        0.8428453429   -0.2552703869    1.8551566525
C        4.3732468341   -1.9765799066    4.0880612303
C        5.6230593564   -3.7283420562    2.9704537831
C        2.8557750506   -1.6159827465    2.0485475311
C        1.8528328412   -0.8222540825    2.6444380713
C        3.9477419450   -2.2509626867    2.8090124676
N        4.6850494027   -3.2543645711    2.1872594916
O        1.7967090334   -0.5883426729    3.9886550660
S        5.7117257789   -2.9894688990    4.5580760875
H        1.7461865862   -1.4216656603   -1.1948568103
H        0.0079507471   -0.0190472278   -0.1188955079
H        3.5266408308   -2.4231586728    0.1409707218
H        0.0729495809    0.3540498356    2.3118437936
H        3.9540777137   -1.2198588283    4.7342525624
H        6.2973126536   -4.5178706629    2.6597574184
H        1.0029050214   -0.0704542797    4.2040777200
19   

C        1.6904795492   -1.3422052946   -0.1042462089
C        0.7646589010   -0.4925131196    0.4856444364
C        2.7059806509   -1.9085723649    0.6676018747
C        0.8634544193   -0.2161265180    1.8470696935
C        4.2373420406   -2.1651727829    4.1486918060
C        5.7281400620   -3.6102694151    2.9005254968
C        2.8292847410   -1.6439767760    2.0548688362
C        1.8779748236   -0.7775463467    2.6351328430
C        3.9262528502   -2.2756264943    2.8111664720
N        4.8000085815   -3.1118295343    2.1214577181
O        1.8832738548   -0.4405957760    3.9576894266
S        5.6381271293   -3.1102760571    4.5766708251
H        1.6265642616   -1.5668363748   -1.1629043756
H       -0.0264852123   -0.0497240550   -0.1096548767
H        3.4055394612   -2.5657764927    0.1629721574
H        0.1336705253    0.4485460060    2.2922885197
H        3.7008355010   -1.5738621942    4.8741250904
H        6.4958746430   -4.2827150692    2.5359880780
H        1.1472308802    0.1643649100    4.1501102205
