29   

C        1.8051221520    4.7066095866   -3.2802509396
C        1.9096616277    5.2524712750   -1.9990987709
C        1.1981868581    3.4612494729   -3.4547636225
C        1.4218091310    4.5473492974   -0.8928424842
C        0.7108758891    2.7569248764   -2.3481322179
C        0.8485549361    3.2749993255   -1.0405837177
C        0.2759675730    2.6257793909    0.1917838203
C       -0.6919812549   -1.5255706795   -0.0005333184
C        0.2354429883   -0.8698681536   -1.0321672739
C       -1.6710174542   -0.4827446737    0.5525888258
C        0.9697188232    0.3191611286   -0.4044036945
C       -0.9171521077    0.7123829028    1.1428516393
N       -0.0019222566    1.2700659541    0.1449486554
O       -0.0859388160    3.3083949131    1.1443469411
H        2.1786890015    5.2556647928   -4.1374144375
H        2.3610588034    6.2284112087   -1.8600493690
H        1.0895820694    3.0474577322   -4.4510164221
H        1.4934005968    4.9961229966    0.0931339351
H        0.1973777596    1.8186585099   -2.5206463240
H       -0.0945175043   -1.9376890474    0.8198953732
H       -1.2453343856   -2.3491883829   -0.4629188225
H       -0.3564527023   -0.5247062918   -1.8860009266
H        0.9616500809   -1.6025997422   -1.3974794963
H       -2.3062272750   -0.9339891785    1.3212399590
H       -2.3190822407   -0.1310845778   -0.2567532957
H        1.6386088029    0.7716245476   -1.1402212468
H        1.6067501210   -0.0439151829    0.4093676120
H       -1.6476897468    1.4606481354    1.4695512064
H       -0.3473246653    0.3961148620    2.0231835483
29   

C        1.8785084447    4.6475287074   -3.2837345259
C        2.0457693312    5.1570743266   -1.9934323324
C        1.1336026271    3.4817470950   -3.4782387765
C        1.4788441244    4.4951837114   -0.8980696840
C        0.5677955213    2.8210293735   -2.3822096810
C        0.7577989427    3.3052174171   -1.0702888146
C        0.1226482582    2.6820841782    0.1431417382
C       -0.6061605532   -1.5052701492   -0.0002297802
C        0.2652286464   -0.8015332758   -1.0491302468
C       -1.6089877419   -0.5085639220    0.5939228156
C        0.9714332936    0.4083329367   -0.4293109263
C       -0.8855935525    0.7065819753    1.1815933633
N       -0.0206725747    1.3103150615    0.1654569471
O       -0.3378685734    3.3865271590    1.0344786838
H        2.3137309702    5.1634283168   -4.1323730680
H        2.6077416861    6.0714236611   -1.8394750190
H        0.9829316533    3.0962880609   -4.4803701408
H        1.5977041812    4.9105076770    0.0978565025
H       -0.0388052416    1.9392289113   -2.5549294580
H        0.0298650931   -1.9036707430    0.7976481409
H       -1.1401426539   -2.3441831305   -0.4578897879
H       -0.3640358474   -0.4696232242   -1.8811981127
H        1.0081974560   -1.5010044263   -1.4446992461
H       -2.2056559310   -0.9944208792    1.3722812142
H       -2.2918088127   -0.1712225374   -0.1927048161
H        1.5967566535    0.8932686889   -1.1821712675
H        1.6494804173    0.0623559306    0.3582640283
H       -1.6363650537    1.4186168836    1.5413650916
H       -0.2792512045    0.4007757915    2.0408096492
29   

C        1.9172417536    4.5730242059   -3.2657272452
C        2.1254319812    5.0364167701   -1.9633478853
C        1.0663840688    3.4870282143   -3.4895601816
C        1.4897237337    4.4093908162   -0.8852766184
C        0.4321386934    2.8611189629   -2.4107180991
C        0.6528598945    3.3047590175   -1.0913114293
C       -0.0369390100    2.6934606582    0.0982890449
C       -0.5404259315   -1.5007786397    0.0025941294
C        0.2877762385   -0.7544775397   -1.0523564344
C       -1.5560375699   -0.5437351732    0.6396245980
C        0.9740737978    0.4646212449   -0.4284130507
C       -0.8519470539    0.6791392651    1.2351654469
N       -0.0318494650    1.3230502510    0.2065025505
O       -0.6073328571    3.4035325150    0.9178422036
H        2.4061336703    5.0621656411   -4.1008928288
H        2.7734423250    5.8876471344   -1.7871450669
H        0.8901683964    3.1358357296   -4.5000899682
H        1.6407344454    4.7847927201    0.1218930996
H       -0.2449542926    2.0343772264   -2.5954990738
H        0.1243658673   -1.8966962514    0.7778874371
H       -1.0620536436   -2.3452384724   -0.4591254288
H       -0.3690128594   -0.4258221840   -1.8642234134
H        1.0406261218   -1.4257626811   -1.4770144865
H       -2.1211056366   -1.0611779276    1.4211670828
H       -2.2660949210   -0.2099496646   -0.1241918522
H        1.5648692152    0.9792843380   -1.1893447819
H        1.6823406081    0.1271971456    0.3358425824
H       -1.6124363691    1.3600276899    1.6323544679
H       -0.2140923570    0.3734451896    2.0711230518
29   

C        1.9537026349    4.5060363138   -3.2911410593
C        2.2165423496    4.9180628578   -1.9810839192
C        1.0036881831    3.5085561295   -3.5293622881
C        1.5329467946    4.3300876313   -0.9102712197
C        0.3221703550    2.9216753523   -2.4574199253
C        0.5885659209    3.3207272298   -1.1339230950
C       -0.1414099641    2.7241810341    0.0409898917
C       -0.4752307830   -1.4453246421    0.0314762977
C        0.3247734546   -0.6782322272   -1.0309008534
C       -1.4862186075   -0.5070754867    0.7042571701
C        1.0098088731    0.5425335728   -0.4087692975
C       -0.7804054946    0.7150732365    1.2999776989
N        0.0032020765    1.3776856913    0.2551823682
O       -0.8203332760    3.4309238436    0.7753851600
H        2.4795890188    4.9653033732   -4.1207853756
H        2.9450487738    5.6988926352   -1.7935985675
H        0.7894653479    3.1950370547   -4.5449350724
H        1.7285616324    4.6627548959    0.1039778505
H       -0.4242248073    2.1580454843   -2.6475310503
H        0.2094095065   -1.8454881923    0.7869889200
H       -0.9987062595   -2.2884451902   -0.4306463307
H       -0.3513439882   -0.3477352857   -1.8260540622
H        1.0761850030   -1.3363722955   -1.4780880164
H       -2.0281515618   -1.0408923135    1.4911036008
H       -2.2169558995   -0.1704949645   -0.0386704324
H        1.5748687591    1.0726111486   -1.1790507920
H        1.7400498402    0.2089319726    0.3361541067
H       -1.5351733471    1.3810826527    1.7313775882
H       -0.1157158301    0.4048398600    2.1129005208
29   

C        1.9895111146    4.4306542058   -3.3297756046
C        2.2932148717    4.7752293533   -2.0090593564
C        0.9579352850    3.5244597611   -3.5926018537
C        1.5668771688    4.2125830212   -0.9528467427
C        0.2343294204    2.9629136500   -2.5347439814
C        0.5360635878    3.2990662160   -1.2029874935
C       -0.2392574638    2.7103111832   -0.0512225979
C       -0.4120258486   -1.4090488615    0.0438559669
C        0.3943533142   -0.6292088963   -1.0051473276
C       -1.4336586985   -0.4830378063    0.7191645246
C        1.0637222077    0.5939137702   -0.3700212151
C       -0.7383158968    0.7391765108    1.3275500450
N        0.0382313131    1.4124189910    0.2849942795
O       -1.0519162809    3.3874362998    0.5650806090
H        2.5481665479    4.8707037818   -4.1483488349
H        3.0872395367    5.4839743452   -1.8022260309
H        0.7139093714    3.2618372596   -4.6158647848
H        1.7970255323    4.4911854688    0.0701730562
H       -0.5720968285    2.2676173933   -2.7415075315
H        0.2685575904   -1.8130281382    0.8009017491
H       -0.9273705557   -2.2505029430   -0.4303480674
H       -0.2759463807   -0.2983816502   -1.8052310855
H        1.1548283778   -1.2789950366   -1.4491869136
H       -1.9756637190   -1.0270805053    1.4988737842
H       -2.1632459562   -0.1454012093   -0.0245501372
H        1.6282657685    1.1341132377   -1.1342838594
H        1.7909606015    0.2659113416    0.3802091489
H       -1.4945070951    1.3969348740    1.7688069356
H       -0.0699005727    0.4269172070    2.1365381069
29   

C        1.9597773110    4.4102607554   -3.3030147173
C        2.3244892551    4.6304121410   -1.9713058613
C        0.8475311881    3.6161169205   -3.5969084499
C        1.5784828776    4.0548856240   -0.9359369287
C        0.1047950616    3.0418474360   -2.5593021957
C        0.4674564300    3.2511289130   -1.2180446058
C       -0.3382812286    2.6448241007   -0.0958331504
C       -0.3290287442   -1.4195522688    0.0978553073
C        0.4854035068   -0.6210902197   -0.9315009804
C       -1.3826360953   -0.5166780201    0.7561661908
C        1.1142717676    0.6164796159   -0.2818338573
C       -0.7228576611    0.7185157988    1.3777610146
N        0.0518520592    1.4085301857    0.3454717757
O       -1.2834748361    3.2495576833    0.3933961671
H        2.5335602084    4.8603120695   -4.1055309888
H        3.1814626962    5.2529388037   -1.7397171121
H        0.5555867840    3.4506389120   -4.6279159335
H        1.8581498260    4.2372872462    0.0962021418
H       -0.7646167567    2.4350469864   -2.7887204360
H        0.3432409049   -1.8133213997    0.8675129541
H       -0.8180013686   -2.2690392992   -0.3898188018
H       -0.1735070618   -0.3032141224   -1.7463886242
H        1.2688113508   -1.2542658922   -1.3592999962
H       -1.9267056469   -1.0734409642    1.5253553310
H       -2.1060483590   -0.1927859680    0.0002880012
H        1.6808799499    1.1698133408   -1.0354471840
H        1.8321242609    0.3069739963    0.4850162420
H       -1.4954252659    1.3612945388    1.8127681416
H       -0.0581408262    0.4184864234    2.1943469748
29   

C        2.0135240467    4.4404972498   -3.3394677062
C        2.4312116125    4.4847832110   -2.0060939017
C        0.8140026675    3.8041185438   -3.6706060418
C        1.6517733947    3.8891113771   -1.0073823749
C        0.0384194553    3.2094883948   -2.6691505461
C        0.4557238615    3.2344389562   -1.3281257146
C       -0.4009551480    2.6217430880   -0.2491176929
C       -0.2782330975   -1.3978584472    0.1726472921
C        0.5546535111   -0.6283941611   -0.8638863970
C       -1.3707387426   -0.4891312624    0.7545084244
C        1.1374278747    0.6514740771   -0.2531813769
C       -0.7542779795    0.7849495999    1.3401302164
N        0.0389815591    1.4471841895    0.3035105214
O       -1.4451525418    3.1586353778    0.0978291823
H        2.6131458396    4.9064167383   -4.1135248404
H        3.3553256570    4.9878352930   -1.7443380102
H        0.4791083542    3.7780537257   -4.7015079580
H        1.9737852469    3.9386778975    0.0272550720
H       -0.9007000815    2.7304424918   -2.9253827513
H        0.3751079060   -1.7432743181    0.9808094505
H       -0.7340273223   -2.2778705824   -0.2925530427
H       -0.0833913012   -0.3615034582   -1.7131063524
H        1.3638063306   -1.2632973737   -1.2377531153
H       -1.9291323250   -1.0220624373    1.5302706607
H       -2.0748459356   -0.2137460629   -0.0380146578
H        1.7109771138    1.1804223613   -1.0186680738
H        1.8392159221    0.3949395836    0.5472908804
H       -1.5502524991    1.4312934594    1.7249068908
H       -0.1095101003    0.5337855032    2.1885639540
29   

C        2.0040072669    4.4822142624   -3.3445067354
C        2.4607582911    4.3647151299   -2.0288672152
C        0.7514331168    3.9697206103   -3.6920720305
C        1.6678471408    3.7296541807   -1.0656286703
C       -0.0370671074    3.3353888441   -2.7257706765
C        0.4186642098    3.1916231022   -1.4044098548
C       -0.4615813800    2.5462008064   -0.3670669440
C       -0.2496550880   -1.3958369374    0.2697916709
C        0.5921124385   -0.6574378365   -0.7817114089
C       -1.3544044748   -0.4743420723    0.8062015831
C        1.1566792224    0.6500643477   -0.2127202535
C       -0.7504336500    0.8229956204    1.3527194757
N        0.0449420713    1.4570684856    0.3002046945
O       -1.5792037442    2.9909078427   -0.1362023664
H        2.6141969810    4.9785565662   -4.0908920475
H        3.4260670971    4.7737571728   -1.7524430231
H        0.3850969110    4.0707633852   -4.7075437026
H        2.0224249089    3.6585755989   -0.0429621703
H       -1.0177502283    2.9554409300   -2.9931099420
H        0.3951372351   -1.7093364929    1.0975039796
H       -0.6944866648   -2.2939541904   -0.1708516782
H       -0.0364465753   -0.4275112106   -1.6487247731
H        1.4109666723   -1.2989272652   -1.1216791316
H       -1.9186231835   -0.9829550459    1.5939203208
H       -2.0511136016   -0.2312334472   -0.0033971040
H        1.7303197643    1.1521766400   -0.9953676762
H        1.8531197118    0.4317315011    0.6035831711
H       -1.5513341570    1.4789290457    1.7104693221
H       -0.1102707890    0.6047887657    2.2136211350
29   

C        1.9520995882    4.5616885916   -3.2966203918
C        2.4479142357    4.2845382624   -2.0202558761
C        0.6635370997    4.1491853527   -3.6430008282
C        1.6581560684    3.5898808287   -1.0962458673
C       -0.1211860179    3.4548750290   -2.7158434522
C        0.3702120281    3.1489363833   -1.4342014986
C       -0.5136245038    2.4340216378   -0.4489236937
C       -0.2068804859   -1.4248393800    0.4093632406
C        0.6235594683   -0.7225142945   -0.6741456542
C       -1.3228121912   -0.4943627572    0.9040899105
C        1.1701534759    0.6178455412   -0.1674011094
C       -0.7339407746    0.8331124013    1.3926495347
N        0.0519997049    1.4359654201    0.3146187933
O       -1.6806583447    2.7777435516   -0.3024833352
H        2.5601009679    5.1039096706   -4.0122304792
H        3.4419673279    4.6165173423   -1.7424520830
H        0.2664300173    4.3729970832   -4.6267755926
H        2.0482666398    3.4027621065   -0.1016267818
H       -1.1284051319    3.1515854273   -2.9834156908
H        0.4422038394   -1.6929680300    1.2494978897
H       -0.6401000294   -2.3470677929    0.0086906457
H       -0.0091374046   -0.5410961216   -1.5496569529
H        1.4510931868   -1.3668121039   -0.9867783200
H       -1.8813705812   -0.9746058456    1.7132798557
H       -2.0220836879   -0.2958801083    0.0844577122
H        1.7270116253    1.0877587821   -0.9810259367
H        1.8764607880    0.4484544928    0.6520656598
H       -1.5417763280    1.4951509572    1.7228632134
H       -0.0907675979    0.6598972975    2.2614430914
29   

C        1.9576456985    4.6534319883   -3.3048709630
C        2.4834967827    4.2306651197   -2.0824014674
C        0.6397863810    4.3349451996   -3.6362516027
C        1.6946936394    3.4849490725   -1.1979881731
C       -0.1435973606    3.5894617006   -2.7488446679
C        0.3730958681    3.1380447618   -1.5192833069
C       -0.5151527882    2.3495080386   -0.5965922448
C       -0.1957487058   -1.4182320056    0.4911352999
C        0.6390711361   -0.7725136191   -0.6224435791
C       -1.3094756909   -0.4601246428    0.9335638851
C        1.1886044167    0.5897315514   -0.1819590862
C       -0.7168891607    0.8878902359    1.3592034727
N        0.0777577817    1.4404006854    0.2603439713
O       -1.7123191531    2.6048727145   -0.5290699847
H        2.5656331894    5.2342048115   -3.9895687939
H        3.5016996876    4.4892181551   -1.8142184077
H        0.2192990362    4.6686876396   -4.5782793686
H        2.1177868823    3.1954378158   -0.2425233525
H       -1.1708836198    3.3555539630   -3.0104228884
H        0.4496020336   -1.6466076853    1.3457050271
H       -0.6308191317   -2.3574779328    0.1343251535
H        0.0087223729   -0.6326943376   -1.5072668490
H        1.4653805974   -1.4335656061   -0.9016497294
H       -1.8743851559   -0.8977463056    1.7622050748
H       -2.0038921479   -0.2999658216    0.1014166567
H        1.7402655770    1.0144013647   -1.0234633882
H        1.8982356579    0.4596605697    0.6418437435
H       -1.5235432125    1.5693644646    1.6508508419
H       -0.0802235836    0.7545643147    2.2396937033
29   

C        1.9379970387    4.7666770507   -3.2793091135
C        2.4990911376    4.2038504511   -2.1323673952
C        0.5950898239    4.5326156436   -3.5737639384
C        1.7207565962    3.4034737907   -1.2870287281
C       -0.1775005093    3.7324550672   -2.7257221492
C        0.3695258337    3.1418234348   -1.5677926079
C       -0.5160935644    2.2740913200   -0.7136222254
C       -0.2138863944   -1.4025497663    0.6069667750
C        0.6336748756   -0.8211195111   -0.5307168591
C       -1.3294996331   -0.4182116581    0.9791069708
C        1.1836104582    0.5613726395   -0.1601431603
C       -0.7380477973    0.9501016897    1.3384935800
N        0.0788736466    1.4458954107    0.2283664508
O       -1.7305411669    2.4451644002   -0.7227473088
H        2.5386701716    5.3885471054   -3.9336927541
H        3.5385420282    4.3956100664   -1.8909665232
H        0.1469384375    4.9712409044   -4.4582888286
H        2.1843815461    3.0175300208   -0.3869458781
H       -1.2218104166    3.5614109228   -2.9682203139
H        0.4206491785   -1.5838308869    1.4806674922
H       -0.6472576052   -2.3592276717    0.2974811629
H        0.0123022397   -0.7279428169   -1.4279721713
H        1.4604659150   -1.4985654137   -0.7658158618
H       -1.9085309954   -0.8076522526    1.8218588333
H       -2.0110031879   -0.3030747857    0.1289927144
H        1.7361482575    0.9360379210   -1.0247367485
H        1.8907469206    0.4741948805    0.6714588417
H       -1.5473670117    1.6491442626    1.5764488724
H       -0.1186225972    0.8636982438    2.2369004411
29   

C        1.8843181154    4.6142152902   -3.5347712867
C        2.1087693635    3.2655955285   -3.2594412922
C        0.8792083463    5.2956691895   -2.8508195041
C        1.3349775302    2.6027751988   -2.2986016715
C        0.1092918587    4.6286178539   -1.8925895787
C        0.3195241318    3.2657482849   -1.5883655174
C       -0.5218261705    2.6362666259   -0.5067391755
C        0.1629153209   -1.4314043529    0.6245740529
C        1.2845708212   -0.5652016059    0.0355368728
C       -1.1946186087   -0.9627523955    0.0853277535
C        1.0245151562    0.9123479939    0.3452777896
C       -1.4061411240    0.5279928541    0.3652742062
N       -0.2880606062    1.3022504040   -0.1759871354
O       -1.5363817331    3.1995287580   -0.1091435282
H        2.4821428051    5.1281742816   -4.2792062216
H        2.8799010614    2.7270020001   -3.7986702340
H        0.6926402786    6.3432889619   -3.0589118431
H        1.5230572124    1.5468214321   -2.1553995022
H       -0.6644560934    5.1810381835   -1.3684179005
H        0.1708551359   -1.3457132937    1.7166236786
H        0.3248408993   -2.4829851362    0.3671494823
H        1.3270741728   -0.7101698324   -1.0488658105
H        2.2479179164   -0.8688159100    0.4568227438
H       -2.0015595250   -1.5423852893    0.5444974548
H       -1.2309444745   -1.1306846659   -0.9958544757
H        1.8350641473    1.5289503457   -0.0507436399
H        1.0319011535    1.0558293680    1.4312902293
H       -2.3527840618    0.8435132356   -0.0871619166
H       -1.4788592440    0.6978255752    1.4451077114
29   

C        1.9442731579    4.5898244181   -3.4600812809
C        2.0409934236    3.2070855843   -3.2987280759
C        1.0114447871    5.3063177938   -2.7105684620
C        1.2120727534    2.5446799675   -2.3850198052
C        0.1859773387    4.6394970664   -1.7992914240
C        0.2739641300    3.2451463553   -1.6088681681
C       -0.6309372608    2.5946446853   -0.5969014588
C        0.2316531971   -1.3936547900    0.6690272020
C        1.3069855350   -0.5094071119    0.0239001065
C       -1.1534606182   -0.9865410129    0.1514993898
C        1.0102455597    0.9684911233    0.2974626494
C       -1.4113017202    0.5022115605    0.4007209992
N       -0.3338071959    1.3029228027   -0.1837076268
O       -1.6967363572    3.1201332861   -0.2940672159
H        2.5837507136    5.1038557749   -4.1690130393
H        2.7537373106    2.6436079040   -3.8903259428
H        0.9226470144    6.3798669643   -2.8339388281
H        1.2919362443    1.4664752852   -2.3181024251
H       -0.5366826271    5.2109092297   -1.2249462856
H        0.2645686209   -1.2749468957    1.7574936548
H        0.4224107990   -2.4464983396    0.4377941770
H        1.3232908619   -0.6854227125   -1.0565235723
H        2.2914861417   -0.7699979974    0.4246103310
H       -1.9285532728   -1.5823430235    0.6436426953
H       -1.2090071324   -1.1827971376   -0.9241423221
H        1.7880725621    1.5925171643   -0.1489609451
H        1.0535665574    1.1471948607    1.3773283507
H       -2.3796434192    0.7697133992   -0.0364841297
H       -1.4663513020    0.6958932078    1.4774496581
29   

C        2.0244826130    4.5798107044   -3.3812297706
C        2.0125687431    3.1844461613   -3.3307037001
C        1.1474834709    5.3070737320   -2.5749327039
C        1.1307516261    2.5196872818   -2.4700307991
C        0.2688256411    4.6376424207   -1.7165250156
C        0.2538436721    3.2319678160   -1.6370129072
C       -0.7185122337    2.5597071338   -0.7068303022
C        0.2716489729   -1.3418498328    0.6906432753
C        1.3120282323   -0.4458231891    0.0056055491
C       -1.1333760482   -0.9749615229    0.1974744578
C        0.9914271849    1.0304984887    0.2595238887
C       -1.4215054820    0.5107257100    0.4314669241
N       -0.3741550529    1.3262138034   -0.1870526446
O       -1.8289440995    3.0432438321   -0.5179149800
H        2.7038796496    5.0964054629   -4.0500376426
H        2.6807658860    2.6151585467   -3.9670417786
H        1.1415250880    6.3905289074   -2.6161706567
H        1.1198184446    1.4357149620   -2.4744718632
H       -0.4172499025    5.2112557040   -1.1011367801
H        0.3260529464   -1.2034287937    1.7758942827
H        0.4809349985   -2.3940634200    0.4729264139
H        1.3068632311   -0.6403977564   -1.0717031014
H        2.3111850240   -0.6784057382    0.3868193799
H       -1.8835172969   -1.5817722766    0.7141942734
H       -1.2070388895   -1.1881936377   -0.8739065003
H        1.7449220192    1.6583797803   -0.2213237017
H        1.0620737022    1.2319788382    1.3338573923
H       -2.4062908883    0.7457616887    0.0129054283
H       -1.4582607236    0.7190626088    1.5060897079
29   

C        2.0563994172    4.5566341118   -3.2888254460
C        1.9736791860    3.1633324031   -3.3478500033
C        1.2162780042    5.2636436566   -2.4258003597
C        1.0575696644    2.4799349764   -2.5394217527
C        0.3030651669    4.5754848520   -1.6195364544
C        0.2217359212    3.1717670371   -1.6503990003
C       -0.7972227827    2.4656673114   -0.7978951973
C        0.3209090536   -1.3298213098    0.7169883209
C        1.3227445250   -0.4144043044    0.0002404169
C       -1.1056523160   -0.9947930763    0.2637476671
C        0.9794813358    1.0563785647    0.2561074053
C       -1.4196904398    0.4847870951    0.5041908803
N       -0.4063923041    1.3168197263   -0.1485420159
O       -1.9472899278    2.8832148785   -0.7330793759
H        2.7615951456    5.0884342973   -3.9178348449
H        2.6129346602    2.6119024485   -4.0281385819
H        1.2644096805    6.3460600699   -2.3850122535
H        0.9877477870    1.4004321799   -2.6159893155
H       -0.3598692978    5.1305131969   -0.9633856900
H        0.4032662473   -1.1870577729    1.7998759591
H        0.5463159515   -2.3780119173    0.4959202464
H        1.2915461740   -0.6133413288   -1.0758338171
H        2.3369519410   -0.6244326324    0.3538145604
H       -1.8270752502   -1.6172461991    0.8022457323
H       -1.2053121395   -1.2117024278   -0.8048778627
H        1.7055674335    1.6942989199   -0.2527020941
H        1.0795314097    1.2677809752    1.3261221561
H       -2.4232637010    0.6949518727    0.1187804587
H       -1.4271759001    0.6956658668    1.5787630837
29   

C        2.0989297927    4.5257178528   -3.2484953936
C        1.9387691107    3.1466007782   -3.4083249538
C        1.3076737145    5.2131374885   -2.3245315352
C        0.9933970629    2.4570590410   -2.6399486660
C        0.3647487692    4.5191041640   -1.5582315571
C        0.2081405226    3.1291489630   -1.6930707911
C       -0.8442122980    2.4050396348   -0.8950834800
C        0.3295482572   -1.2700580228    0.7522145262
C        1.3086388638   -0.3506999845    0.0088012972
C       -1.1112556639   -0.9421211313    0.3387154810
C        0.9655332326    1.1194878477    0.2679699484
C       -1.4251248816    0.5364039570    0.5877353813
N       -0.4330125161    1.3659064177   -0.0996549513
O       -2.0180241312    2.7482669392   -0.9600292335
H        2.8264969200    5.0627933511   -3.8468050161
H        2.5406052332    2.6123075835   -4.1348624809
H        1.4163611428    6.2854813247   -2.2067768487
H        0.8620894214    1.3902343078   -2.7851365803
H       -0.2626446256    5.0582615867   -0.8558932837
H        0.4406933580   -1.1266872775    1.8323939210
H        0.5538032783   -2.3172724344    0.5253321701
H        1.2510449611   -0.5520365889   -1.0657837736
H        2.3326897613   -0.5548965036    0.3364928163
H       -1.8140974337   -1.5681374010    0.8972009314
H       -1.2398872967   -1.1599775857   -0.7267243312
H        1.6736086320    1.7562735120   -0.2675357629
H        1.0950460983    1.3397046733    1.3329711258
H       -2.4426780837    0.7421086245    0.2388666132
H       -1.3976828953    0.7496213962    1.6613825215
29   

C        2.1036020675    4.4907738146   -3.2036403191
C        1.8690548725    3.1392554852   -3.4732413361
C        1.3690974743    5.1375507997   -2.2057263383
C        0.9046654996    2.4360098669   -2.7418843754
C        0.4066550453    4.4304543810   -1.4763508913
C        0.1739387177    3.0681984938   -1.7274923633
C       -0.8892720635    2.3177926723   -0.9654632325
C        0.3475977299   -1.2116571415    0.7975674763
C        1.3039800432   -0.2719122314    0.0488841879
C       -1.1053921966   -0.9003435953    0.4119669303
C        0.9428594686    1.1920030542    0.3203676908
C       -1.4329054460    0.5727707070    0.6766053289
N       -0.4638988048    1.4114957359   -0.0312514368
O       -2.0758168339    2.5442643947   -1.1645104031
H        2.8460558959    5.0386118899   -3.7732269180
H        2.4284881751    2.6377342193   -4.2549438983
H        1.5378052550    6.1890031617   -2.0017965397
H        0.7163555051    1.3914457627   -2.9654910285
H       -0.1748949715    4.9382282550   -0.7140715331
H        0.4742854360   -1.0773274869    1.8771261117
H        0.5825419697   -2.2534822814    0.5569743472
H        1.2357050395   -0.4666424532   -1.0264086092
H        2.3351495845   -0.4631861510    0.3616721222
H       -1.7894916926   -1.5393397708    0.9788837555
H       -1.2508123584   -1.1129322482   -0.6524787431
H        1.6330725665    1.8407370382   -0.2249554112
H        1.0826439860    1.4127200474    1.3838932001
H       -2.4613764299    0.7713797319    0.3572407630
H       -1.3812269917    0.7818373222    1.7500900903
29   

C        2.0565430774    4.4477698304   -3.1558480497
C        1.7403814536    3.1434433068   -3.5480786901
C        1.4013646232    5.0234813675   -2.0632461425
C        0.7716494046    2.4161648933   -2.8466074454
C        0.4342730165    4.2931012679   -1.3634903150
C        0.1149901674    2.9794732965   -1.7455068607
C       -0.9363997098    2.1890865916   -1.0064844303
C        0.3889958926   -1.1655495142    0.8993527981
C        1.3185120489   -0.1964909861    0.1530969760
C       -1.0725167340   -0.9068261169    0.5051820555
C        0.9037617039    1.2563943886    0.4095582318
C       -1.4487485756    0.5570717712    0.7558126769
N       -0.5057580655    1.4164723704    0.0385988742
O       -2.1141816442    2.2558904179   -1.3332671513
H        2.8025349321    5.0141661236   -3.7021948662
H        2.2405119500    2.6973161209   -4.4003704469
H        1.6367129582    6.0380866704   -1.7619249672
H        0.5210157272    1.4085130477   -3.1606233671
H       -0.0814615765    4.7453651877   -0.5231289309
H        0.5046200982   -1.0223671310    1.9789509563
H        0.6610821509   -2.1997545749    0.6649940963
H        1.2667155828   -0.4004608758   -0.9215755055
H        2.3530588241   -0.3494214181    0.4755755366
H       -1.7371144578   -1.5634307700    1.0751264880
H       -1.2067848320   -1.1330402682   -0.5579927141
H        1.5752066916    1.9236295282   -0.1373220298
H        1.0242861907    1.4928237167    1.4719906793
H       -2.4832771257    0.7235529536    0.4375930098
H       -1.4028601690    0.7785045247    1.8270499287
29   

C        2.0604693320    4.4440653326   -3.1556831534
C        1.6625146803    3.2037609231   -3.6644146048
C        1.4914396194    4.9263195411   -1.9730881439
C        0.6971699379    2.4466717833   -2.9903364219
C        0.5275379115    4.1668962690   -1.3003987773
C        0.1238952267    2.9175151631   -1.8028996571
C       -0.9153942193    2.0836017344   -1.0971213059
C        0.4074771225   -1.1131110967    0.9826492198
C        1.3377823446   -0.1361120446    0.2473898327
C       -1.0472603097   -0.8944933074    0.5417371396
C        0.8830217446    1.3125730154    0.4596732998
C       -1.4592262953    0.5658725791    0.7525164487
N       -0.5168262311    1.4292583557    0.0394896749
O       -2.0533732210    1.9966185529   -1.5402649272
H        2.8040059594    5.0333747596   -3.6807274073
H        2.0966600069    2.8304487514   -4.5851317300
H        1.7921029264    5.8911898416   -1.5803658812
H        0.3823068156    1.4896076435   -3.3928803456
H        0.0812230811    4.5464867820   -0.3875572087
H        0.4876959743   -0.9488866138    2.0624051520
H        0.7090685074   -2.1448305763    0.7748384152
H        1.3246261345   -0.3622180830   -0.8241456197
H        2.3649231980   -0.2590882533    0.6044189596
H       -1.7140549103   -1.5537997721    1.1059264806
H       -1.1466699079   -1.1440301892   -0.5201366481
H        1.5563634362    1.9803899950   -0.0837077607
H        0.9649179638    1.5758976211    1.5194076808
H       -2.4890459421    0.7078630342    0.4079659632
H       -1.4433672257    0.8100404076    1.8196499618
29   

C        1.8501891623    4.4523161511   -3.1940660987
C        0.5185081638    4.5713999325   -2.7843851519
C        2.7419271001    3.6775802040   -2.4462220764
C        0.0784906654    3.9138730771   -1.6296048420
C        2.2998972140    3.0201625378   -1.2926830117
C        0.9593508783    3.1269401888   -0.8775414477
C        0.4508480617    2.4438189795    0.3644946993
C       -1.2071236337   -1.1875490450    0.0749883913
C       -0.6637618087   -0.4025451891   -1.1283793584
C       -1.2896917823   -0.2768344579    1.3084486364
C        0.6866006662    0.2437798262   -0.7960666200
C        0.0739894653    0.3585588568    1.5973269568
N        0.5268349420    1.0730192780    0.4028019599
O       -0.0086205645    3.0988394820    1.2918109351
H        2.1919857813    4.9659447762   -4.0857805303
H       -0.1732690570    5.1788968966   -3.3570556511
H        3.7773428109    3.5915363018   -2.7562241102
H       -0.9522151330    4.0187942050   -1.3066933284
H        2.9970004968    2.4288146080   -0.7088160600
H       -0.5417330155   -2.0302525300    0.2900830505
H       -2.1980486411   -1.5905165053   -0.1581041840
H       -1.3784423650    0.3821952168   -1.3986688168
H       -0.5549263806   -1.0685514496   -1.9898925006
H       -1.6243484972   -0.8510405021    2.1778326425
H       -2.0226319163    0.5167229549    1.1268300801
H        1.0296786320    0.8049238419   -1.6684163361
H        1.4340401412   -0.5327249428   -0.6025834886
H       -0.0066024504    1.0223414016    2.4648117869
H        0.8014653532   -0.4171675308    1.8573482325
29   

C        1.8805562789    4.5310231467   -3.1485646293
C        0.5728829248    4.7477745399   -2.7042234661
C        2.7026543511    3.6234636328   -2.4746126873
C        0.0856306654    4.0526737700   -1.5912064941
C        2.2138511608    2.9287565870   -1.3625750435
C        0.8909203757    3.1245347830   -0.9182011646
C        0.3294387656    2.4302020805    0.2927165648
C       -1.1410845584   -1.2576489141    0.1695986918
C       -0.6365680214   -0.4990188724   -1.0663266623
C       -1.2405202831   -0.3054155178    1.3694704760
C        0.6941518019    0.2054093453   -0.7746732980
C        0.1058248667    0.3820417827    1.6189259399
N        0.5249391812    1.0711664282    0.3972186980
O       -0.2424150487    3.0717040047    1.1662289634
H        2.2590066827    5.0734053557   -4.0078524262
H       -0.0634293733    5.4606591069   -3.2165265988
H        3.7219838191    3.4645356014   -2.8081998968
H       -0.9246836777    4.2370774600   -1.2399553746
H        2.8644335100    2.2414348586   -0.8326759255
H       -0.4463626863   -2.0700748842    0.4070408016
H       -2.1207958041   -1.7001731150   -0.0378773360
H       -1.3807335669    0.2507292648   -1.3558409136
H       -0.5144785680   -1.1911406863   -1.9052072027
H       -1.5482510574   -0.8574263263    2.2627885462
H       -2.0001209849    0.4576493805    1.1673113485
H        0.9973923386    0.7491044792   -1.6720247702
H        1.4729165797   -0.5364006308   -0.5689431728
H        0.0154303200    1.0733989702    2.4637427161
H        0.8599360901   -0.3613422532    1.8967668103
29   

C        1.9376477387    4.6024056548   -3.1052365683
C        0.6597671652    4.9009768607   -2.6250774811
C        2.6759779078    3.5711112617   -2.5192826929
C        0.1165237223    4.1620165922   -1.5677071882
C        2.1315705677    2.8326776712   -1.4626283085
C        0.8294446242    3.1020724471   -0.9897505518
C        0.2101696836    2.3915637721    0.1829030555
C       -1.0915164041   -1.3332908963    0.2658952875
C       -0.6327227440   -0.6143947329   -1.0099510399
C       -1.2015982655   -0.3310597480    1.4227152182
C        0.6790313864    0.1445736086   -0.7749348803
C        0.1271626381    0.4071268516    1.6179648811
N        0.5103726477    1.0558023403    0.3624348831
O       -0.4541208595    3.0147638759    1.0035873210
H        2.3597904079    5.1785632644   -3.9210791162
H        0.0901325525    5.7117573908   -3.0651887828
H        3.6762056991    3.3514650271   -2.8754500258
H       -0.8689809249    4.4146812621   -1.1889673298
H        2.7314052519    2.0592506596   -0.9957721689
H       -0.3673121459   -2.1121503772    0.5264138002
H       -2.0600110769   -1.8146208205    0.0953111330
H       -1.4059019398    0.0979353106   -1.3174575882
H       -0.5030074841   -1.3379592614   -1.8207166677
H       -1.4786389370   -0.8507033708    2.3449657941
H       -1.9875947623    0.3986624329    1.1991126147
H        0.9382529587    0.6616267973   -1.7013162059
H        1.4875381084   -0.5616592813   -0.5588896838
H        0.0289835214    1.1337904161    2.4318298175
H        0.9072339985   -0.3003321375    1.9169717449
29   

C        1.9962357864    4.6922613905   -3.0681433109
C        0.7560048122    5.0577073998   -2.5403909413
C        2.6430546125    3.5508480138   -2.5900029287
C        0.1566419748    4.2747674624   -1.5470713490
C        2.0430536958    2.7682799366   -1.5970505878
C        0.7680906892    3.0993706704   -1.0844893482
C        0.0934719097    2.3673443462    0.0458908221
C       -1.0412495027   -1.3818085653    0.3746458208
C       -0.6362095990   -0.7170833829   -0.9468046711
C       -1.1661897074   -0.3204903362    1.4750783412
C        0.6514098878    0.0994678187   -0.7835560130
C        0.1391293594    0.4730975551    1.6028131421
N        0.4849115239    1.0651225231    0.3085310300
O       -0.6531413468    2.9673497668    0.8122298493
H        2.4623040480    5.3022738503   -3.8339203892
H        0.2590401372    5.9545810952   -2.8928026201
H        3.6191108802    3.2805557303   -2.9770457204
H       -0.7980106889    4.5855681964   -1.1338774946
H        2.5928564488    1.9191548590   -1.2081623858
H       -0.2832159232   -2.1180756985    0.6613597147
H       -1.9943732848   -1.9063585979    0.2513710582
H       -1.4414508505   -0.0500339193   -1.2730679898
H       -0.4977247277   -1.4776088553   -1.7215253707
H       -1.4086348220   -0.7962464850    2.4301212935
H       -1.9817533620    0.3674964640    1.2262870699
H        0.8607608447    0.5800495644   -1.7419128710
H        1.4919259983   -0.5651227108   -0.5576577104
H        0.0280541769    1.2421600300    2.3750766621
H        0.9475889744   -0.1890852835    1.9287496031
29   

C        2.0467095594    4.7868499576   -3.0195127800
C        0.8528155723    5.2003124811   -2.4266000589
C        2.5978796064    3.5518842108   -2.6747597725
C        0.2017666280    4.3728056510   -1.5046811491
C        1.9472224094    2.7240210104   -1.7527707135
C        0.7089210699    3.1030459687   -1.1822024210
C       -0.0175743968    2.3397513217   -0.1006412949
C       -0.9907944513   -1.4163054372    0.4929082309
C       -0.6335531470   -0.8193557935   -0.8727004399
C       -1.1450169409   -0.2916290935    1.5234542988
C        0.6227909550    0.0549248170   -0.7841663584
C        0.1299567349    0.5581030033    1.5825842743
N        0.4487764766    1.0798805817    0.2510465536
O       -0.8480336247    2.9068458480    0.6027355831
H        2.5530019664    5.4310272220   -3.7297602033
H        0.4315991430    6.1686572977   -2.6724627050
H        3.5427661846    3.2430128453   -3.1075809988
H       -0.7148831625    4.7285292861   -1.0444228772
H        2.4460221300    1.8076928310   -1.4638829800
H       -0.1987354895   -2.1012202808    0.8129083811
H       -1.9231214306   -1.9855188063    0.4182312024
H       -1.4699178604   -0.2051089358   -1.2234761447
H       -0.4777739278   -1.6196727159   -1.6028003798
H       -1.3588113252   -0.7129522240    2.5103237604
H       -1.9897667198    0.3464761196    1.2412791873
H        0.7844104717    0.4889236267   -1.7737289010
H        1.4950467825   -0.5620672899   -0.5438944258
H       -0.0053512055    1.3723732280    2.3029482533
H        0.9652867453   -0.0497674353    1.9444635203
