19

C      1.38499   -0.05369    1.61639
C      0.19956   -0.43719    0.97369
C      1.69466   -0.57825    2.86425
C     -0.62234   -1.34580    1.63974
C      0.78997   -1.49894    3.45869
C      2.22917   -1.71617    5.43188
C      0.05160   -2.99282    5.24331
N     -0.35246   -1.86909    2.84166
N      1.02944   -2.06051    4.69073
H      2.06552    0.65228    1.14596
H     -0.07588   -0.04841   -0.00155
H      2.60946   -0.28493    3.36538
H     -1.55586   -1.67686    1.18465
H      2.23687   -2.26150    6.37616
H      2.27504   -0.64293    5.66392
H      3.14170   -1.98542    4.88219
H      0.40548   -3.33499    6.21751
H     -0.08502   -3.86002    4.58876
H     -0.92749   -2.51754    5.36621
