14

C     -1.06629   -0.04513   -0.93176
C      0.31560    0.46782   -1.32896
C      0.06799   -0.03018    0.06057
C      0.69902   -1.32091    0.54545
O      0.06727    0.96568    1.06691
O      0.66711   -2.29122   -0.50465
H     -1.85077    0.69369   -0.79385
H     -1.38066   -1.00389   -1.33111
H      0.90998   -0.15473   -1.98949
H      0.44132    1.54036   -1.43779
H      0.14257   -1.68291    1.42543
H      1.73010   -1.10485    0.85896
H     -0.67194    0.77788    1.66781
H      1.17437   -3.06440   -0.21699
