18

C      1.57963    0.48946    1.59223
C      1.43692    0.29364    2.96498
C      0.36093    0.06850    0.99931
C     -0.49235   -0.37070    2.00795
C     -1.85394   -0.91783    2.04092
C     -3.80883   -1.61093    0.70927
N      0.19833   -0.21966    3.19654
N     -2.48564   -1.02168    0.83479
O     -2.37630   -1.24651    3.11802
O      0.01114    0.06295   -0.33349
H      2.45457    0.88591    1.09146
H      2.13254    0.48699    3.76972
H     -3.76199   -2.69570    0.54773
H     -4.33546   -1.14958   -0.13072
H     -4.36553   -1.42580    1.62891
H     -0.22210   -0.47504    4.08202
H     -1.95921   -0.79160    0.00055
H      0.75497    0.39855   -0.85643
