20

C      1.24136    0.13702    1.72284
C      0.47531   -3.82723    6.37965
C      0.26602   -0.44489    0.90816
C      1.45065   -3.24532    7.19433
C      1.48614   -0.41352    2.97938
C      0.23047   -3.27666    5.12313
C     -0.42129   -1.55976    1.39855
C      2.13790   -2.13041    6.70393
C      0.74362   -1.53483    3.38361
C      0.97295   -2.15533    4.71890
N     -0.19682   -2.09808    2.60138
N      1.91337   -1.59206    5.50113
H      1.80111    1.00512    1.38364
H     -0.08439   -4.69536    6.71883
H      0.03999   -0.05135   -0.07875
H      1.67676   -3.63890    8.18121
H      2.23011   -0.00423    3.65308
H     -0.51354   -3.68594    4.44945
H     -1.18882   -2.04226    0.79459
H      2.90542   -1.64788    7.30789
