23

C     -0.83735    0.58411    1.72231
C     -1.63132    1.23635    0.58239
C     -0.10284   -0.68463    1.28181
C     -0.74041    1.57588   -0.61615
C      3.00888   -1.34934    0.98571
C      1.87062   -1.45506   -0.02847
N      0.86262   -0.39133    0.19721
O     -0.99234   -0.87999   -1.60517
O      1.09650    0.42757   -2.21824
S      0.06308    0.08093   -1.23692
H     -0.10015    1.29536    2.11268
H     -1.51656    0.33093    2.54344
H     -2.43096    0.56725    0.24869
H     -2.10549    2.15972    0.93222
H      0.47624   -1.07844    2.12021
H     -0.81247   -1.46493    0.97030
H     -1.31075    1.96410   -1.46412
H      0.06519    2.27049   -0.36825
H      3.49632   -0.37368    0.90743
H      2.66067   -1.47828    2.01541
H      3.75271   -2.12852    0.78899
H      1.39570   -2.44515    0.01109
H      2.27314   -1.32114   -1.03407
