15

C      1.40186   -0.05974    1.64979
C      0.23045   -0.40645    0.95483
C      1.64643   -0.62351    2.89345
C     -0.63884   -1.31039    1.55582
C      0.69275   -1.52846    3.40301
C     -0.01294   -2.98841    5.14353
N     -0.42073   -1.86907    2.76153
O      0.95524   -2.06578    4.62088
H      2.11221    0.64273    1.22117
H      0.00295    0.01274   -0.02030
H      2.53316   -0.39328    3.47511
H     -1.55923   -1.61010    1.05694
H      0.38223   -3.29800    6.11196
H     -0.12603   -3.85191    4.48230
H     -0.98677   -2.50585    5.26389
