17

C      1.82252   -1.04526    0.67107
C      2.95349   -1.48340    1.36343
C      0.71705   -0.54264    1.36135
C      1.87439   -0.92297    3.50063
C      2.95545   -1.42202    2.75313
C      0.77512   -0.48743    2.74826
C      1.91371   -0.89282    5.00962
C      1.29719    0.29426    5.72343
O      2.44563   -1.80157    5.62577
F      4.06774   -1.82377    3.39486
F     -0.31309   -0.00899    3.40407
H      1.80253   -1.09441   -0.41356
H      3.82862   -1.86738    0.84955
H     -0.17747   -0.20300    0.84980
H      0.21850    0.13917    5.82502
H      1.44289    1.22655    5.17102
H      1.73737    0.36564    6.71962
