23

C      2.15459   -1.28458   -0.13453
C      0.95109   -0.66877    0.23272
C     -0.96132   -3.48845    4.72404
C     -1.16755   -3.16651    6.06941
C      3.06676   -1.70705    0.83542
C      0.65519   -0.48176    1.58629
C     -0.12334   -2.68999    3.94715
C     -0.50855   -2.04637    6.57874
C      2.77235   -1.52309    2.19054
C      1.55886   -0.91929    2.55074
C      0.47587   -1.58620    4.57332
N      0.30166   -1.26582    5.84945
O      3.66194   -1.93654    3.14020
O      1.33400   -0.72482    3.91436
H      2.39012   -1.43057   -1.18519
H      0.25193   -0.33138   -0.52659
H     -1.44445   -4.35493    4.27997
H     -1.81378   -3.76350    6.70529
H      4.00828   -2.17524    0.56385
H     -0.26754   -0.00483    1.90478
H      0.06088   -2.91348    2.90319
H     -0.63141   -1.75662    7.62103
H      3.33416   -1.62878    4.00489
