17

C      1.40711   -0.05889    1.65709
C      0.25002   -0.38816    0.94407
C      1.61839   -0.64551    2.90229
C     -0.64629   -1.29621    1.51751
C      1.60311   -2.80052    6.60091
C      0.41784   -3.44161    6.39363
C      0.65430   -1.54574    3.38723
C      0.86249   -2.17196    4.69730
N     -0.46121   -1.86988    2.71138
N      1.87436   -1.99218    5.50788
O     -0.06766   -3.04681    5.17542
H      2.13076    0.64213    1.24947
H      0.04283    0.04414   -0.03056
H      2.49664   -0.42895    3.50103
H     -1.55782   -1.57631    0.99150
H      2.27170   -2.86294    7.44887
H     -0.18029   -4.14820    6.94935
