17

C      1.39440   -0.04778    1.62315
C      0.22688   -0.40445    0.94508
C      1.64382   -0.61182    2.87359
C     -0.64099   -1.31664    1.55842
C      0.87610   -3.23183    6.54666
C      2.02525   -2.49997    6.55726
C      0.70724   -1.51792    3.40026
C      0.93015   -2.13581    4.71429
N     -0.41934   -1.86696    2.75441
N      0.18972   -2.98899    5.36635
O      2.07802   -1.78785    5.38629
H      2.09862    0.65632    1.18777
H     -0.01119    0.00804   -0.03108
H      2.53799   -0.36281    3.43460
H     -1.56125   -1.61879    1.06026
H      0.49717   -3.91083    7.29880
H      2.84825   -2.36907    7.24382
