23

C      1.97827   -1.06291   -0.14146
C      1.00277   -0.28601    0.49161
C      2.83916   -1.84201    0.63959
C      0.69369    2.10480    5.65015
C      0.41873    1.61343    6.93267
C      0.88265   -0.27966    1.88308
C      2.74132   -1.82642    2.03112
C      1.11357    1.23350    4.65108
C      0.60398    0.24739    7.15059
C      1.76349   -1.04254    2.67050
C      1.23960   -0.13598    4.97067
N      0.99898   -0.61425    6.20585
N      1.67467   -1.09719    4.07139
H      2.06206   -1.06682   -1.22453
H      0.31201    0.30793   -0.10168
H      3.60090   -2.45549    0.16523
H      0.59417    3.16515    5.43116
H      0.08743    2.26365    7.73610
H      0.08673    0.28794    2.35281
H      3.42843   -2.41511    2.63472
H      1.37057    1.60078    3.66478
H      0.42625   -0.18317    8.13530
H      1.89439   -1.97989    4.51759
