29

C      6.59708   -1.24559    5.50585
C      2.04085   -0.93984   -0.11328
C      2.63969   -1.98330    0.59597
C      5.97119   -2.38817    6.02248
C      5.85184   -0.35230    4.73409
C      1.33661    0.05072    0.57787
C      2.53092   -2.02649    1.98848
C      4.62077   -2.62825    5.77486
C      4.49502   -0.58161    4.47309
C      1.22090    0.02206    1.97396
C      1.83274   -1.03272    2.68194
C      3.87782   -1.72350    5.00138
C      0.45293    1.10640    2.69683
C      1.70145   -1.09668    4.19234
O      2.55621   -2.05269    4.81525
H      7.64966   -1.05944    5.69984
H      2.11975   -0.89472   -1.19650
H      3.19043   -2.75945    0.07091
H      6.53687   -3.09454    6.62484
H      6.32574    0.53293    4.31741
H      0.86799    0.86200    0.02484
H      2.99724   -2.83206    2.54643
H      4.11951   -3.50597    6.17278
H      3.94860    0.11061    3.84318
H     -0.35026    0.69304    3.31788
H      1.10204    1.69007    3.36128
H     -0.00233    1.80199    1.98731
H      1.86041   -0.10968    4.64378
H      0.68969   -1.41530    4.46543
