31

C      2.62895   -4.64346    5.96138
C      2.94479   -4.37441    4.61913
C      1.90757   -3.70374    6.68028
C      2.54580   -3.19021    4.01324
C      0.33727   -0.32605    6.23492
C      0.67525   -0.12771    4.93303
C      1.48988   -2.49576    6.09396
C      1.80892   -2.22353    4.73702
C      0.72081   -1.53904    6.92913
C      2.33514    0.96033    1.08355
C      1.00159    0.28109    0.63377
C      2.49474    0.64120    2.58563
C      0.42668   -0.40992    1.88887
C      1.66724   -0.64328    2.76913
N      1.38583   -1.01525    4.16592
O      0.43855   -1.77008    8.11465
H      2.94654   -5.57337    6.42446
H      3.50993   -5.09771    4.03680
H      1.63697   -3.86110    7.72005
H      2.81708   -3.03605    2.97691
H     -0.22777    0.42902    6.77032
H      0.38249    0.78368    4.42491
H      3.17710    0.55256    0.51606
H      2.32835    2.03842    0.90342
H      0.29394    1.00158    0.21556
H      1.19884   -0.45643   -0.15008
H      3.53541    0.50814    2.89435
H      2.07564    1.44720    3.19674
H     -0.27850    0.25128    2.40293
H     -0.10333   -1.34095    1.66914
H      2.23131   -1.45687    2.32171
