16

C      0.15154    1.31067   -2.92236
C      0.21500    0.45977   -0.97919
C      0.18810    2.32633   -4.01792
C      0.28300    0.18930    0.49389
N      0.31646    1.63105   -1.59541
N     -0.03695    0.01213   -3.15155
N      0.00464   -0.51316   -1.89338
N      0.64197   -1.22065    0.72703
H      1.14954    2.84962   -4.02451
H      0.03931    1.84213   -4.98495
H     -0.59366    3.07823   -3.87091
H      0.96174    0.92414    0.94743
H     -0.70808    0.36273    0.92867
H     -0.09718   -1.50569   -1.72101
H      0.44718   -1.47262    1.69343
H      1.64262   -1.35029    0.58598
