41

C     -0.35686    0.98464   -1.70502
C      2.92084    0.70803    0.61498
C      2.69406   -0.80766    0.77021
C      1.52786    1.34073    0.81869
C      1.31677   -1.03168    0.13060
C     -2.11566   -1.02643    0.63624
C     -1.97526    0.34087   -0.02812
C     -0.22961   -0.08832    1.89629
C      0.48219    0.20598    0.56081
C      0.93901    2.92382   -3.62824
C      2.94432    1.47333   -3.18853
C      0.95846    0.49015   -4.37496
C      1.42003    1.50231   -3.32206
N     -1.19101   -1.18665    1.77862
N     -0.57851    0.56658   -0.41860
O     -1.25252    1.24008   -2.50688
O      0.97098    1.08518   -1.98219
H      3.66673    1.10042    1.31355
H      3.27456    0.91769   -0.39714
H      3.48037   -1.40474    0.29744
H      2.67454   -1.08542    1.83123
H      1.41499    1.70783    1.84509
H      1.36132    2.18968    0.15626
H      1.41207   -1.04221   -0.95668
H      0.83190   -1.95900    0.44576
H     -3.15303   -1.16591    0.96081
H     -1.90302   -1.79896   -0.11419
H     -2.58411    0.39342   -0.92925
H     -2.31553    1.13750    0.64611
H      0.53439   -0.37409    2.62597
H     -0.67731    0.85278    2.25811
H     -0.14390    2.95877   -3.74479
H      1.23203    3.60361   -2.82134
H      1.40788    3.27394   -4.55402
H      3.28985    0.47190   -2.91511
H      3.27995    2.17799   -2.42212
H      3.40728    1.75174   -4.13996
H      1.27472   -0.51958   -4.09295
H     -0.12544    0.50359   -4.48767
H      1.41823    0.73325   -5.33875
H     -1.70903   -1.27404    2.64696
