23

C     -1.15899   -1.02781   -4.38833
C     -2.06230   -1.65150   -3.47943
C      0.06393   -0.76079   -3.82355
C     -7.65132   -2.38917    0.25711
C     -1.51535   -1.85925   -2.22179
C     -7.72061   -1.54422   -0.81440
C     -5.56724   -2.04292   -0.92512
C     -2.06244   -2.49262   -1.02810
C     -8.94676   -0.83117   -1.30275
N     -6.52048   -1.35304   -1.48757
N     -3.29802   -2.60309   -0.65895
N     -4.27689   -2.06141   -1.42624
S      0.13450   -1.27204   -2.17460
S     -6.02153   -2.99152    0.47522
H     -1.40365   -0.79381   -5.41909
H     -3.04819   -1.99767   -3.76906
H      0.92340   -0.28835   -4.28201
H     -8.44414   -2.68841    0.92990
H     -1.35531   -2.93107   -0.32697
H     -8.79352    0.25319   -1.28315
H     -9.16704   -1.11140   -2.33843
H     -9.81488   -1.07181   -0.68413
H     -4.06283   -1.31220   -2.08509
