27

C     -2.81132    3.73867    1.91514
C      3.10975   -1.51930    2.21573
C      2.09863   -0.70524    2.72551
C      3.02093   -2.03832    0.92011
C      0.87887   -0.91423    0.63940
C     -2.16407    3.70687    0.65145
C      0.98028   -0.37858    1.93758
C      1.89609   -1.73416    0.15087
C     -1.21292    2.83271    0.17910
C     -1.67935    4.31591   -1.35668
C     -0.06882    0.48300    2.52329
C     -1.53059    4.94562   -2.69421
N     -3.36071    3.79207    2.94252
N     -2.43629    4.64151   -0.36585
N     -0.77582    1.40726    1.97058
N     -0.58705    1.70641    0.65197
O     -0.88845    3.19488   -1.09133
Cl     1.74950   -2.40312   -1.46437
H      3.97490   -1.75815    2.82784
H      2.17457   -0.31073    3.73534
H      3.80245   -2.67444    0.51726
H     -0.00538   -0.74405    0.03420
H     -0.27367    0.35834    3.58523
H     -0.50427    5.29257   -2.85286
H     -1.77335    4.23585   -3.49164
H     -2.20884    5.79722   -2.75433
H      0.27103    1.42947    0.17391
