20

C      4.22160   -2.37072   -0.43869
C      1.95804   -1.42084   -0.31126
C      0.92313   -0.81852    0.40293
C      2.31708   -0.86831    2.41268
C      3.16934   -1.75201    0.31161
C      3.35307   -1.47364    1.68828
C      1.12518   -0.55325    1.75763
C      6.20627   -2.06166    3.90553
C      4.80226   -1.56965    3.60613
N      5.06074   -2.87343   -1.07243
O      4.54818   -1.82351    2.21236
Br    -0.27644    0.27296    2.76582
H      1.83323   -1.64078   -1.36693
H     -0.01284   -0.56324   -0.08061
H      2.42692   -0.64301    3.46519
H      6.29209   -3.13172    3.69847
H      6.93996   -1.52997    3.29375
H      6.43991   -1.88950    4.96085
H      4.70883   -0.49389    3.80067
H      4.05783   -2.10109    4.21213
