31

C      8.88747    3.88064   -0.58131
C      8.84103    4.69715    0.57482
C      8.18252    2.69279   -0.62251
C      6.44968   -0.23384   -3.50830
C      8.09302    4.31634    1.67050
C      6.98752   -0.00881   -4.77312
C      7.40191   -2.45414   -3.50451
C      5.96889    1.61871    2.67671
C      7.40642    2.27866    0.49100
C      6.65970   -1.46034   -2.84926
C      7.35985    3.10145    1.65435
C      7.74881   -0.99559   -5.40820
C      7.95111   -2.22842   -4.76778
C      6.62982    1.06538    0.56741
C      6.08956   -1.76009   -1.51429
N      6.62722    2.75578    2.75992
N      5.92361    0.74828    1.63689
N      6.03659   -1.00621   -0.46955
N      6.60440    0.22687   -0.53092
Cl     8.41171   -0.66584   -6.98503
Cl     8.87892   -3.49896   -5.51999
H      9.48062    4.18935   -1.43758
H      9.40011    5.62894    0.59542
H      8.23992    2.09089   -1.52608
H      5.82642    0.53131   -3.05540
H      8.04151    4.92503    2.56816
H      6.81298    0.93218   -5.28521
H      7.56569   -3.41478   -3.02503
H      5.37979    1.32723    3.54517
H      5.67352   -2.75532   -1.36539
H      7.22473    0.44273   -1.30481
