32

C     -1.79836   -0.07077    2.03935
C      1.16566   -3.88200   -5.25199
C      2.09145   -3.48616   -6.22714
C      0.87571   -3.05790   -4.16865
C      2.45597   -1.42452   -5.04528
C     -0.87396    0.21703    0.98628
C      2.74732   -2.24972   -6.13742
C     -0.66232   -0.67459   -0.05243
C      1.52951   -1.81741   -4.06709
C      0.27251   -0.34811   -1.08708
C     -0.17357    1.49846    1.07442
C      0.96259    0.88832   -1.02188
C      3.72110   -1.80602   -7.20448
C     -1.38937   -1.98882   -0.13026
N     -2.55733   -0.32953    2.88542
N      1.31645   -0.90722   -3.01117
N      0.46965   -1.24713   -2.11135
N      0.73011    1.73159    0.00510
O     -0.29469    2.34460    1.94849
O      1.83387    1.26642   -1.92477
H      0.67116   -4.84574   -5.34135
H      2.30622   -4.14703   -7.06377
H      0.16418   -3.35430   -3.40634
H      2.94981   -0.46099   -4.94020
H      3.20033   -1.27220   -8.00828
H      4.47966   -1.13053   -6.79880
H      4.23331   -2.66042   -7.65601
H     -1.95294   -2.05142   -1.06567
H     -2.07199   -2.11823    0.70896
H     -0.67189   -2.81453   -0.14080
H      1.23583    2.61438    0.03397
H      1.84984    0.46544   -2.61478
