52

C     -2.40060    2.53171   -3.41250
C      2.36470    1.98746    1.15683
C      1.72050    1.48446    0.00103
C      2.29513    1.34728    2.39889
C      0.95059   -0.35568    1.28772
C      0.99355    0.29434    0.05233
C      0.30834   -1.59033    1.60400
C      1.56086    0.15560    2.45450
C      0.51517   -1.80614    2.94625
C     -0.32597   -2.35874    0.48276
C     -0.47824    0.73002   -1.97109
C     -1.79123   -1.20815   -2.86328
C      0.21799   -0.34452   -1.09012
C     -1.85127    0.26834   -2.48515
C     -0.84984   -1.36803   -0.58333
C     -3.26254   -4.41460   -2.45838
C      0.71965   -4.24121    5.67539
C     -2.31994    1.09360   -3.69974
C      0.04732   -2.89354    3.85173
C     -1.89160   -4.12476   -3.07791
C     -0.95724   -3.34543   -2.13995
N     -2.46043    3.66693   -3.16662
N      1.24215   -0.72908    3.47500
N     -1.52653   -2.06829   -1.70308
O      1.11502   -3.26162    4.72640
H      2.92484    2.91572    1.07842
H      1.79495    2.04916   -0.92484
H      2.78538    1.76993    3.27212
H      0.43562   -3.01413    0.04514
H     -1.15338   -2.99554    0.81308
H     -0.60124    1.65491   -1.40195
H      0.16262    0.97418   -2.82706
H     -2.73369   -1.51530   -3.33444
H     -1.00330   -1.32645   -3.63405
H      0.92387   -0.90780   -1.71655
H     -2.59906    0.39612   -1.69526
H     -1.61913   -0.77888   -0.06799
H     -3.15909   -4.99604   -1.53472
H     -3.78299   -3.48752   -2.20170
H     -3.89347   -4.98711   -3.14666
H      1.58885   -4.45063    6.30243
H      0.40047   -5.17080    5.18126
H     -0.10431   -3.87838    6.30829
H     -3.30885    0.75837   -4.03169
H     -1.63110    0.95277   -4.54106
H     -0.81250   -2.55715    4.45634
H     -0.28385   -3.75494    3.25406
H     -2.01501   -3.59437   -4.02866
H     -1.38847   -5.06749   -3.32615
H     -0.78543   -3.97509   -1.26626
H      0.02122   -3.21081   -2.64277
H      1.69755   -0.78192    4.37628
