67

C     -1.12654   -2.97933   -4.64415
C     -1.05018    2.97088   -8.86873
C     -0.55836   -2.01160   -5.47388
C     -2.50803   -3.18311   -4.62170
C     -0.51137    1.73825   -8.48621
C     -2.74051   -1.45779   -6.35925
C     -2.30140    3.36958   -8.39662
C     -1.35073   -1.22425   -6.33325
C     -3.27962   -2.41044   -5.49509
C     -2.97868    2.46974   -7.54117
C     -1.25358    0.93550   -7.61271
C     -4.22893    4.84608   -8.45675
C     -4.18528    1.96778   -4.75271
C     -6.35698    2.01341   -5.91937
C     -6.62804   -4.80148   -5.38857
C     -5.04337   -4.91391   -6.88227
C     -4.59313    0.78220   -3.89852
C     -6.82825    0.79516   -5.12647
C     -5.03435    3.63088   -7.98973
C     -4.84881    1.87541   -6.13519
C     -6.32788   -5.71055   -6.59392
C     -5.52804    2.84558   -9.22027
C     -2.07224    5.68954   -9.26345
C     -6.69554    1.43871   -2.70518
N     -2.45978    1.29936   -7.16351
N     -2.88571    4.61940   -8.68407
N     -4.23033    2.83443   -7.05297
N     -5.24321   -4.23238   -5.55535
N     -0.73190   -0.28728   -7.16129
N     -6.10308    0.60651   -3.79934
O     -4.77822    5.92073   -8.66490
O     -5.61226   -2.19103   -4.15079
O     -5.60778   -1.86231   -6.63633
F     -7.25929   -5.68592   -7.58233
F     -6.10725   -7.01001   -6.26121
S     -5.05512   -2.57968   -5.47146
H     -0.48540   -3.56721   -3.99411
H     -0.48190    3.61406   -9.53139
H      0.51782   -1.85585   -5.44988
H     -2.96631   -3.91328   -3.96401
H      0.45870    1.42209   -8.85721
H     -3.37703   -0.91577   -7.04201
H     -4.43835    2.92527   -4.28435
H     -3.09974    1.92608   -4.85159
H     -6.91504    1.99150   -6.85825
H     -6.60994    2.95241   -5.41501
H     -7.43408   -4.09394   -5.59647
H     -6.76635   -5.29667   -4.42821
H     -4.11906   -5.48959   -6.92870
H     -5.15449   -4.24746   -7.74135
H     -4.20932   -0.13840   -4.33094
H     -4.21955    0.85127   -2.87534
H     -7.89288    0.84918   -4.89145
H     -6.64456   -0.11244   -5.70210
H     -5.88201    4.05146   -7.45055
H     -4.67376    0.86721   -6.52728
H     -4.68505    2.46624   -9.80528
H     -6.12910    3.49712   -9.86008
H     -6.14198    1.98993   -8.92425
H     -1.79021    5.45092  -10.29436
H     -1.16934    5.83846   -8.66464
H     -2.66799    6.60026   -9.26297
H     -6.54596    2.49318   -2.93440
H     -7.76160    1.22286   -2.63124
H     -6.20244    1.19093   -1.76501
H      0.27135   -0.38183   -7.25289
H     -6.22432   -0.39429   -3.57367
