15   

C        2.3735518359   -0.8682187565   -1.0115462200
C        1.3057966043   -1.3292230266   -0.2891817577
C        3.4829494026   -1.6362979520   -1.7090710822
C       -0.8572753559   -0.4581751079   -1.1956075208
C       -0.0969922014   -1.7006085788   -0.7412463602
H        2.7543764816    0.0793900601   -0.6454422560
H        1.2943012525   -0.9854547984    0.7397281268
H        4.3819943282   -1.0183530185   -1.7919987022
H        3.1610976729   -1.9269234256   -2.7132611781
H        3.7274289373   -2.5397569352   -1.1427145498
H       -0.3416434459    0.0202408248   -2.0339627855
H       -0.9343499236    0.2587939268   -0.3719107455
H       -1.8673362991   -0.7332214542   -1.5142198321
H       -0.6345858379   -2.1731952853    0.0870452903
H       -0.0376885804   -2.4217860713   -1.5626700593
15   

C        2.4056407375   -0.8120111949   -0.9165608482
C        1.3162227935   -1.2303407743   -0.2171538569
C        3.3824520756   -1.6530253005   -1.7135338488
C       -0.8744005021   -0.4707608822   -1.1469929668
C       -0.0284022049   -1.6789077656   -0.7560494253
H        2.9116263332    0.0285613546   -0.4534322182
H        1.2399764166   -0.8349701888    0.7902971484
H        3.3330585673   -1.3801553404   -2.7716407064
H        3.1386518255   -2.7149616537   -1.6127294612
H        4.4029974522   -1.4916184055   -1.3537931413
H       -0.3686606469    0.1133595858   -1.9221873422
H       -1.0448008516    0.1698883207   -0.2759096015
H       -1.8436351875   -0.8014911114   -1.5324832413
H       -0.5521477062   -2.2623442108    0.0078645318
H        0.1227307045   -2.3215902901   -1.6293556845
15   

C        2.4586566581   -0.7799995848   -0.8202286628
C        1.3375753500   -1.1406327736   -0.1543898557
C        3.3012202945   -1.6572509270   -1.7196575644
C       -0.8889094566   -0.4954329311   -1.0774672393
C        0.0474580380   -1.6562206776   -0.7552464257
H        3.0362798634   -0.0003301687   -0.3350076697
H        1.2096876285   -0.6934105952    0.8257691921
H        3.2221658892   -1.3146689519   -2.7554959465
H        2.9619198549   -2.6961963012   -1.6657628242
H        4.3504395520   -1.6153338660   -1.4125381172
H       -0.4183738604    0.1826057648   -1.7965259472
H       -1.1282331469    0.0641072502   -0.1677185215
H       -1.8196431930   -0.8744921757   -1.5104631737
H       -0.4374275352   -2.3381093774   -0.0494997722
H        0.2642413767   -2.2152471966   -1.6712678178
15   

C        2.5138212965   -0.7852841050   -0.7248321681
C        1.3526283772   -1.0710969314   -0.1035017083
C        3.2401527660   -1.6516475141   -1.7252620886
C       -0.8787255037   -0.5176975050   -1.0639891661
C        0.1027505786   -1.6384091936   -0.7347261905
H        3.1500033452   -0.0738021826   -0.2091066159
H        1.1980530215   -0.5966422249    0.8598417919
H        3.1347073589   -1.2309007188   -2.7294965585
H        2.8315543389   -2.6666930680   -1.7230051353
H        4.3037834612   -1.7044072776   -1.4746331117
H       -0.4253294237    0.1874112163   -1.7679355729
H       -1.1603708691    0.0218911898   -0.1543578442
H       -1.7829092149   -0.9337911980   -1.5187382160
H       -0.3641123292   -2.3482191824   -0.0445569854
H        0.3576825530   -2.1781581757   -1.6522570271
15   

C        2.5561628544   -0.8140512040   -0.6487534651
C        1.3571190314   -1.0128242777   -0.0739639107
C        3.1924969110   -1.6343942060   -1.7421561437
C       -0.8451435957   -0.5312426996   -1.1269047088
C        0.1331565492   -1.6246623341   -0.7090658792
H        3.2375441553   -0.1717057556   -0.1010541539
H        1.1934789530   -0.5263066913    0.8817980210
H        3.0576140760   -1.1385496693   -2.7078517524
H        2.7450402779   -2.6314975939   -1.7895959003
H        4.2637437251   -1.7466652005   -1.5507117546
H       -0.3769479701    0.1369006651   -1.8566828254
H       -1.1545775610    0.0559388492   -0.2565841352
H       -1.7343539922   -0.9786751197   -1.5814801652
H       -0.3502901298   -2.2957721219    0.0078913158
H        0.4119843353   -2.2158485886   -1.5865599762
15   

C        2.5950509397   -0.8605971049   -0.5973056442
C        1.3552621282   -0.9499445984   -0.0894228483
C        3.1754760651   -1.6369920841   -1.7499758663
C       -0.8785906548   -0.5409449234   -1.1028342936
C        0.1460719659   -1.6006631993   -0.7101709436
H        3.3039294872   -0.2763224612   -0.0202594891
H        1.1797311273   -0.4213664141    0.8415896203
H        3.0192420026   -1.0910965570   -2.6850023279
H        2.7075924908   -2.6224048052   -1.8301916565
H        4.2499417978   -1.7792603271   -1.6013239409
H       -0.4473331129    0.1486490618   -1.8354661483
H       -1.1950375961    0.0286173327   -0.2234377116
H       -1.7581091260   -1.0176422717   -1.5464572811
H       -0.3009471896   -2.2937543617    0.0095015859
H        0.4283746921   -2.1749069475   -1.5974145516
15   

C        2.6215789214   -0.9209637067   -0.5384793496
C        1.3553191364   -0.8997938485   -0.0946607957
C        3.1620882680   -1.6334934833   -1.7499135504
C       -0.8295596808   -0.5455147686   -1.2309722368
C        0.1518582677   -1.5814066917   -0.6922834593
H        3.3364029233   -0.3266787532    0.0207189701
H        1.1745453257   -0.3306696078    0.8110715645
H        4.0926206943   -1.1607747347   -2.0777337797
H        2.4456442682   -1.5902335281   -2.5754348935
H        3.3656879326   -2.6809177116   -1.5086765642
H       -0.3559813100    0.0545750566   -2.0142409376
H       -1.1605336483    0.1189305382   -0.4265228941
H       -1.7063407140   -1.0458007343   -1.6535800256
H       -0.3411641876   -2.1805511551    0.0798068733
H        0.4504919954   -2.2598681713   -1.4969431003
15   

C        2.6382275601   -0.9874289253   -0.4970521143
C        1.3537414163   -0.8493666195   -0.1314755761
C        3.1723854545   -1.6360527949   -1.7471626238
C       -0.8576545159   -0.5480902400   -1.2345693682
C        0.1500260188   -1.5587287161   -0.6965001268
H        3.3644631108   -0.4463219193    0.1001599810
H        1.1705984794   -0.2399308157    0.7471715462
H        4.1017326878   -1.1472968797   -2.0542394492
H        2.4520844545   -1.5501042635   -2.5660789302
H        3.3761982666   -2.6947379974   -1.5617593742
H       -0.4083374805    0.0453755106   -2.0369255942
H       -1.1848148521    0.1250657694   -0.4358443046
H       -1.7337354888   -1.0697625003   -1.6320916765
H       -0.3202225905   -2.1512791501    0.0946611264
H        0.4453763688   -2.2465272019   -1.4945504658
15   

C        2.6493203642   -1.0582482440   -0.4696822067
C        1.3591320631   -0.8036372281   -0.1897052184
C        3.2062787545   -1.6417884333   -1.7433231483
C       -0.9065931187   -0.5466122645   -1.1970109936
C        0.1462692589   -1.5359306173   -0.7078342462
H        3.3754957762   -0.5662049634    0.1686577395
H        1.1769303005   -0.1409643217    0.6497669482
H        4.1432768361   -1.1419012135   -2.0060975978
H        2.5010099565   -1.5098709733   -2.5693436527
H        3.4018886936   -2.7099299397   -1.6109995255
H       -0.5054173528    0.0605510180   -2.0145238419
H       -1.2157611258    0.1151611754   -0.3818507485
H       -1.7860496563   -1.0870867352   -1.5605697382
H       -0.2763591880   -2.1440071803    0.0982890091
H        0.4252727526   -2.2104861339   -1.5231659422
15   

C        2.6547186892   -1.1314100546   -0.4575390815
C        1.3706826846   -0.7701340745   -0.2670733459
C        3.2662222370   -1.6460291784   -1.7389919245
C       -0.9574218627   -0.5447883684   -1.1445959532
C        0.1383665772   -1.5181182867   -0.7216335366
H        3.3674170894   -0.6840533291    0.2272217779
H        1.1955287961   -0.0467803464    0.5223637911
H        4.2125885935   -1.1337342738   -1.9361597804
H        2.5929345721   -1.4701957487   -2.5834797071
H        3.4567609754   -2.7200970171   -1.6569964988
H       -0.6126188873    0.0741335220   -1.9788924897
H       -1.2332820307    0.1064763752   -0.3093638274
H       -1.8456322807   -1.0989620920   -1.4635519396
H       -0.2273292282   -2.1412667895    0.1006728687
H        0.3863825416   -2.1783227135   -1.5587858309
15   

C        2.6322763615   -1.2128152787   -0.4682338122
C        1.3606485415   -0.7654941447   -0.3585020237
C        3.3354913951   -1.6467012173   -1.7357276380
C       -1.0253489518   -0.5335293338   -1.0825651258
C        0.0932923599   -1.5084043168   -0.7276899144
H        3.3149257543   -0.8077285527    0.2713290554
H        1.2062403654    0.0171471739    0.3769384752
H        4.2890185063   -1.1200434413   -1.8375922295
H        2.7170082959   -1.4232849567   -2.6104077266
H        3.5276320873   -2.7231776989   -1.7063577221
H       -0.7334478375    0.0810000197   -1.9400173042
H       -1.2456627011    0.1217700849   -0.2341743557
H       -1.9334364923   -1.0866299264   -1.3418432210
H       -0.2188505632   -2.1308175922    0.1169619604
H        0.2875116277   -2.1682149671   -1.5794527179
15   

C        2.6108296485   -1.2923018076   -0.5147432211
C        1.3471520620   -0.7909623224   -0.4775920429
C        3.4428644883   -1.6432349386   -1.7320459790
C       -1.0947081741   -0.5178060917   -0.9959409545
C        0.0363365049   -1.5098985856   -0.7402647845
H        3.2412702420   -0.9162578883    0.2842186933
H        1.2234351396    0.0603600510    0.1837112137
H        4.3928452117   -1.1009316898   -1.7110589923
H        2.9064318735   -1.3760154058   -2.6475692075
H        3.6489918154   -2.7173865148   -1.7464013609
H       -0.8666446398    0.0969760062   -1.8724207554
H       -1.2350726444    0.1360292771   -0.1296971406
H       -2.0286946993   -1.0572549615   -1.1814641501
H       -0.2115256850   -2.1367532646    0.1222296339
H        0.1494366456   -2.1635603794   -1.6111694651
15   

C        2.5863756649   -1.3695261418   -0.5843765006
C        1.3240329274   -0.8417411049   -0.6107319495
C        3.5568764243   -1.6376178147   -1.7219315120
C       -1.1540899213   -0.4992600816   -0.9074756773
C       -0.0303147194   -1.5212723827   -0.7560024768
H        3.1357737010   -1.1071084479    0.3136622563
H        1.2375866158    0.0725290500   -0.0328660222
H        3.4472925861   -0.8730538849   -2.4966698263
H        3.3529485210   -2.6174058387   -2.1633791077
H        4.5879383131   -1.6233688566   -1.3562315603
H       -0.9884410487    0.1138187032   -1.7990930275
H       -1.2012542921    0.1535612889   -0.0304959321
H       -2.1142707660   -1.0139340120   -1.0118008114
H       -0.2163153737   -2.1498874012    0.1206431151
H       -0.0133247749   -2.1696637280   -1.6378663966
