17   

C        5.9158521194    0.1245285835   -0.8427791639
C        4.6764425716   -0.6282312984   -1.0436197808
C        5.9741688302    1.0500047698    0.1689329496
C        3.5816452153   -0.4470019345   -0.2372720023
C        4.8146092786    1.2603978979    1.0111313282
C        2.2659951024   -1.1421536125   -0.4086026817
C        2.1075632527   -2.3280660190   -1.3497841997
N        3.6763777947    0.5186272225    0.7948159371
O        4.8242462085    2.0843599280    1.9084027733
O        1.2844112229   -0.7092932295    0.1842437942
H        6.7741295318   -0.0417735235   -1.4858066469
H        4.6406100821   -1.3400601164   -1.8607793676
H        6.8598143932    1.6392566550    0.3624001702
H        2.8164825925   -3.1141603421   -1.0769384976
H        2.2903112377   -2.0123244527   -2.3800314683
H        1.0919025218   -2.7272773360   -1.2764444166
H        2.8787423968    0.7381232455    1.3833151766
17   

C        5.9079747338    0.1528480316   -0.8595982812
C        4.6589055294   -0.5745044709   -1.0908287193
C        5.9890274158    1.0089949176    0.2099258725
C        3.5834660551   -0.4497416214   -0.2487894074
C        4.8432078685    1.1730585732    1.0809013035
C        2.2471792405   -1.0928431639   -0.4736933631
C        2.1024881314   -2.3407470359   -1.3332315636
N        3.6987490700    0.4483619195    0.8404132962
O        4.8687075243    1.9445891261    2.0233294502
O        1.2419971995   -0.5386245452   -0.0465966649
H        6.7539931645    0.0251104082   -1.5272153267
H        4.5971822045   -1.2172855567   -1.9618579665
H        6.8814240187    1.5797459407    0.4264500898
H        2.7448691955   -3.1339394280   -0.9417089754
H        2.3838021559   -2.1193493871   -2.3656402695
H        1.0646328813   -2.6854672784   -1.3153680190
H        2.9024989782    0.6663353900    1.4308884872
17   

C        5.8956778223    0.2012280207   -0.9323449612
C        4.6328663803   -0.5018082196   -1.1635495827
C        6.0321053345    0.9650130082    0.1996923472
C        3.6045282893   -0.4538555016   -0.2576512753
C        4.9292380825    1.0586993663    1.1343347768
C        2.2465296070   -1.0559567065   -0.4933323175
C        2.0801107541   -2.3589225349   -1.2641537009
N        3.7723249311    0.3541491558    0.8932924814
O        5.0007246269    1.7538768135    2.1321658999
O        1.2512824461   -0.4054407909   -0.2061265544
H        6.7073697179    0.1300842393   -1.6491922523
H        4.5223791726   -1.0566358826   -2.0881608636
H        6.9362955876    1.5157890244    0.4189981794
H        2.4656217183   -3.1878940130   -0.6647416902
H        2.6183470979   -2.3175084461   -2.2132894030
H        1.0206091768   -2.5351990506   -1.4706780537
H        3.0021144395    0.5467525164    1.5249703507
17   

C        5.8836029407    0.2582817660   -0.9781711089
C        4.6132479791   -0.4209492860   -1.2363174634
C        6.0403605490    0.9450815099    0.1999126457
C        3.6013425379   -0.4282471819   -0.3126142550
C        4.9507352695    0.9836509634    1.1544693091
C        2.2352875803   -1.0068648768   -0.5900788114
C        2.0829501554   -2.3860419800   -1.2178048467
N        3.7851199282    0.3038179324    0.8852622763
O        5.0406362340    1.6093982403    2.1957962404
O        1.2549137168   -0.2830536710   -0.5134046149
H        6.6840310731    0.2309572278   -1.7105198902
H        4.4775944936   -0.9081830032   -2.1955156408
H        6.9508706223    1.4757274871    0.4415698356
H        2.1350027664   -3.1464227660   -0.4341495255
H        2.8756347368   -2.5722783541   -1.9453173269
H        1.1154897766   -2.4614213215   -1.7220344710
H        3.0271711981    0.4674842997    1.5387348039
17   

C        5.8667963562    0.3797744203   -1.0421656366
C        4.5899982013   -0.2778304771   -1.3226331220
C        6.0452656644    0.9858815902    0.1765706600
C        3.5912782317   -0.3358162693   -0.3893739771
C        4.9707005678    0.9642577824    1.1489271975
C        2.2241240464   -0.9227172934   -0.6800819235
C        2.0872052039   -2.3889208967   -1.0620187995
N        3.7946226990    0.3145639643    0.8516373372
O        5.0829257471    1.5083068486    2.2330607885
O        1.2725267753   -0.1776292616   -0.8361910436
H        6.6554690555    0.3967849686   -1.7874553430
H        4.4330535763   -0.7154140329   -2.3028979669
H        6.9627021319    1.4942747809    0.4390034510
H        2.0415790802   -2.9963434373   -0.1543282433
H        2.9447293314   -2.7071555409   -1.6597176847
H        1.1718313351   -2.5416809041   -1.6403873350
H        3.0559938882    0.4288953817    1.5362785901
17   

C        5.8226430254    0.5267111720   -1.1289760568
C        4.5511075813   -0.1149899769   -1.4645072484
C        6.0047949584    1.0086876909    0.1435071112
C        3.5478537131   -0.2468975202   -0.5457813942
C        4.9392067766    0.8744907479    1.1166460449
C        2.2190782802   -0.9123643688   -0.8553202577
C        2.0182807064   -2.3859387789   -0.5403711095
N        3.7625095908    0.2562204977    0.7605477713
O        5.0612230822    1.2864761834    2.2564316464
O        1.2871430145   -0.2533364983   -1.2786800561
H        6.6064901294    0.6226364755   -1.8733913252
H        4.4000437750   -0.4877256141   -2.4723875550
H        6.9207765195    1.4943005741    0.4504444570
H        2.4318543879   -2.6153802700    0.4450773348
H        2.5294451595   -2.9925695391   -1.2923369520
H        0.9520792704   -2.6290700360   -0.5467885172
H        3.0419992931    0.2703937910    1.4728286037
17   

C        5.7974501970    0.6506520857   -1.1635235644
C        4.5367766902    0.0094347126   -1.5381775611
C        5.9881633108    1.0202683409    0.1447217477
C        3.5413465505   -0.2103252775   -0.6269185319
C        4.9418645332    0.7708681121    1.1158296049
C        2.2620803939   -0.9397178983   -0.9788140454
C        1.9375263077   -2.2635495541   -0.3017556597
N        3.7713773018    0.1649549743    0.7202596648
O        5.0751655792    1.0697877131    2.2890599633
O        1.3949635532   -0.3917246713   -1.6356852497
H        6.5680664710    0.8293668139   -1.9064988488
H        4.3862063409   -0.2948645211   -2.5691217235
H        6.8983900412    1.4962837088    0.4823025686
H        2.2958906008   -2.2635213227    0.7304492600
H        2.4260614831   -3.0759418824   -0.8461963105
H        0.8569901807   -2.4316407846   -0.3049067367
H        3.0721018432    0.0818951802    1.4484014304
17   

C        5.7613838107    0.7971997614   -1.1484609997
C        4.5144051611    0.1466355658   -1.5509756486
C        5.9762197912    1.0477476902    0.1842007182
C        3.5492855179   -0.1866642816   -0.6395001967
C        4.9682141043    0.6668784502    1.1535469154
C        2.3169975310   -0.9543562677   -1.0464371933
C        1.8921431604   -2.1857151945   -0.2586333709
N        3.8063340210    0.0616295168    0.7321997195
O        5.1269934148    0.8520052267    2.3468904501
O        1.5514733184   -0.5003881308   -1.8801609597
H        6.5041414341    1.0728322706   -1.8901851388
H        4.3485764305   -0.0744691647   -2.6009237162
H        6.8793035384    1.5221335746    0.5426206461
H        1.7520072552   -1.9334712113    0.7949378094
H        2.6625474992   -2.9566299107   -0.3452713188
H        0.9531433922   -2.5790097836   -0.6585224093
H        3.1428696822   -0.1355676762    1.4713381770
17   

C        5.7522482660    0.8922190011   -1.1352176442
C        4.5300369650    0.2111095919   -1.5620081477
C        5.9808320383    1.0607365395    0.2081123513
C        3.5998078717   -0.2308578743   -0.6592301219
C        5.0117734532    0.5645697959    1.1651439721
C        2.4004493313   -1.0193468075   -1.1057766625
C        1.8642647113   -2.1567946541   -0.2480467603
N        3.8709519215   -0.0650651082    0.7223851927
O        5.1850494919    0.6740812878    2.3657773812
O        1.7582558882   -0.6634972888   -2.0813397249
H        6.4662885652    1.2538384442   -1.8681560867
H        4.3548380162    0.0546261273   -2.6222558802
H        6.8673437525    1.5527925986    0.5836623823
H        1.4180411877   -1.7585955575    0.6663804005
H        2.6791770815   -2.8382976239    0.0108448684
H        1.1040739418   -2.7136207724   -0.8034166663
H        3.2407383697   -0.3591096747    1.4583055495
17   

C        5.7388565099    0.9568458855   -1.1176602295
C        4.5306667650    0.2565790621   -1.5532354355
C        6.0049270358    1.0442304304    0.2264701934
C        3.6525239341   -0.2904090779   -0.6549309504
C        5.0887193983    0.4446116109    1.1761547413
C        2.4539807443   -1.0677588776   -1.1180386673
C        1.8004856562   -2.1018767521   -0.2114648900
N        3.9606942610   -0.2028199903    0.7264078016
O        5.2935482903    0.4857814448    2.3761101680
O        1.9254363648   -0.7978429940   -2.1860423422
H        6.4128739094    1.3969560447   -1.8455472760
H        4.3259649816    0.1719684276   -2.6165006015
H        6.8827936695    1.5473592386    0.6075997797
H        1.3527133666   -1.6099951179    0.6555352448
H        2.5492170334   -2.8247351970    0.1236506049
H        1.0189135621   -2.6351239547   -0.7603297163
H        3.3723984285   -0.5784583319    1.4597905678
17   

C        5.7067602572    1.0081258516   -1.1239322736
C        4.5285726370    0.2636271177   -1.5683312255
C        5.9966863466    1.0499358921    0.2173453270
C        3.7054487251   -0.3787117590   -0.6805186374
C        5.1342518595    0.3600140997    1.1556992974
C        2.5197847827   -1.1718559100   -1.1493680730
C        1.7700934839   -2.0938133011   -0.1968875241
N        4.0334610044   -0.3276590454    0.6983744942
O        5.3584640718    0.3637686320    2.3528852581
O        2.1089247694   -1.0374983989   -2.2928067971
H        6.3400598501    1.5167448026   -1.8436945806
H        4.3054328386    0.2233276426   -2.6305161255
H        6.8541366522    1.5830139622    0.6041912484
H        1.3201854199   -1.5103870965    0.6103982602
H        2.4586245532   -2.8319892244    0.2228900328
H        0.9775378372   -2.6198748158   -0.7369208658
H        3.4866312473   -0.7728707639    1.4248331727
17   

C        5.6717645863    1.0639868465   -1.1340210371
C        4.5259456542    0.2763829557   -1.5887287339
C        5.9832866559    1.0694225701    0.2030782331
C        3.7611081864   -0.4517666124   -0.7150190569
C        5.1749327755    0.2996601685    1.1273708554
C        2.5868448279   -1.2571693550   -1.1917704492
C        1.7421274486   -2.0633438449   -0.2139985425
N        4.1046674948   -0.4287648059    0.6608391094
O        5.4152194364    0.2758494531    2.3212040055
O        2.2979993940   -1.2712463204   -2.3796747577
H        6.2640297222    1.6334474338   -1.8430737826
H        4.2820115308    0.2740339527   -2.6470954100
H        6.8181035422    1.6324855190    0.5968809724
H        1.2978107028   -1.3974644145    0.5303582917
H        2.3637061987   -2.8108476991    0.2857627682
H        0.9393075585   -2.5756259667   -0.7521274434
H        3.5985472225   -0.9344674737    1.3771265471
17   

C        5.6032440563    1.1133733588   -1.1463752509
C        4.4926711631    0.2748161843   -1.5973546048
C        5.9437642830    1.1025979910    0.1836735545
C        3.7972412227   -0.5256767852   -0.7290774165
C        5.1999606143    0.2661135703    1.1043629054
C        2.6353004122   -1.3529533395   -1.1978756225
C        1.7039737418   -2.0278623255   -0.1997276621
N        4.1628088539   -0.5106984599    0.6410702460
O        5.4626585652    0.2322515607    2.2932233789
O        2.4609359928   -1.5396935368   -2.3933267147
H        6.1464566991    1.7334592114   -1.8522292918
H        4.2182236157    0.2912810846   -2.6481042756
H        6.7541437701    1.7020656075    0.5747774886
H        1.2736632476   -1.2789736532    0.4704881009
H        2.2562924432   -2.7688178921    0.3837504239
H        0.8915972842   -2.5310381969   -0.7320563867
H        3.7051727712   -1.0663094444    1.3530019115
17   

C        6.2646324552   -0.1042235398   -0.0290562682
C        5.2016605974   -1.0996667743   -0.1668776868
C        5.9218058970    1.2224927806    0.0569987603
C        3.8791654531   -0.7420714901   -0.1881625351
C        4.5240708036    1.6032857367    0.0099161302
C        2.8031174041   -1.7669852026   -0.4035259428
C        1.4439518622   -1.3619585686   -0.9576062647
N        3.5532291653    0.6360901300   -0.1161152015
O        4.1763999541    2.7692041561    0.0673660051
O        2.9716906851   -2.9186865758   -0.0316716827
H        7.3052980436   -0.4106088004    0.0019434932
H        5.4707810219   -2.1484267141   -0.2521726184
H        6.6633447099    2.0028977409    0.1576785991
H        1.5749784121   -0.8266936689   -1.9019318779
H        0.9240847378   -0.7201622213   -0.2420867568
H        0.8374784195   -2.2536275074   -1.1408490899
H        2.6055460134    0.9922103970   -0.1270405063
17   

C        6.2553280392   -0.1198954333   -0.0979052687
C        5.1842672215   -1.1105400017   -0.2042676826
C        5.9202016288    1.2013263364    0.0671632641
C        3.8645757574   -0.7562803635   -0.1116008681
C        4.5227519196    1.5807219414    0.1331814159
C        2.7738708443   -1.7682767120   -0.3256359304
C        1.4847953811   -1.3727880096   -1.0319320269
N        3.5450878244    0.6170891654    0.0355408438
O        4.1810213375    2.7431581631    0.2576814336
O        2.8478610604   -2.8717291498    0.1917436240
H        7.2954629946   -0.4247910603   -0.1524837021
H        5.4427600343   -2.1540499732   -0.3578101121
H        6.6673377884    1.9786795976    0.1482152508
H        1.7203753385   -0.8775129784   -1.9778485115
H        0.9041396645   -0.6956250413   -0.4009451404
H        0.8881415368   -2.2651174559   -1.2420113925
H        2.5989200669    0.9690144282    0.1138053539
17   

C        6.2272844991   -0.1397056118   -0.1880395919
C        5.1392162191   -1.1153863634   -0.2540694984
C        5.9213879747    1.1763666385    0.0554781240
C        3.8350699803   -0.7546262144   -0.0481453543
C        4.5375591538    1.5645827187    0.2427814919
C        2.7100581202   -1.7427273109   -0.2256238851
C        1.4988306735   -1.3739921664   -1.0708126027
N        3.5444004499    0.6141757127    0.1780631985
O        4.2202293213    2.7237660685    0.4406384249
O        2.6670714108   -2.7597157670    0.4460183003
H        7.2568265750   -0.4509589153   -0.3328893428
H        5.3726998177   -2.1537732583   -0.4685823622
H        6.6814920057    1.9432565538    0.1119475206
H        1.8118550100   -1.2187382879   -2.1067904908
H        1.0360550416   -0.4592378003   -0.6935334903
H        0.7633833240   -2.1830686094   -1.0421003254
H        2.6123748621    0.9668910263    0.3578334015
17   

C        6.1992284729   -0.1559825615   -0.3372011965
C        5.0916882610   -1.1108512265   -0.3862459378
C        5.9370151943    1.1430964942    0.0208400542
C        3.8129150645   -0.7479914620   -0.0658629252
C        4.5790718300    1.5339016818    0.3423077927
C        2.6433006371   -1.7024542371   -0.1830686826
C        1.5192570123   -1.4027092775   -1.1643376252
N        3.5669469175    0.6034611699    0.2828717060
O        4.3002396190    2.6786290283    0.6512511405
O        2.4842602734   -2.5917580194    0.6338754262
H        7.2093638809   -0.4692115039   -0.5807419285
H        5.2924779079   -2.1364197552   -0.6795209093
H        6.7130205339    1.8941468546    0.0737989334
H        1.7918719744   -1.7841515114   -2.1518837437
H        1.3501990266   -0.3255544424   -1.2352288914
H        0.5959225143   -1.8886460905   -0.8370133756
H        2.6609075759    0.9457858842    0.5794848223
17   

C        6.1504561515   -0.1305794456   -0.4545317257
C        5.0176085293   -1.0558283334   -0.4961741938
C        5.9448318982    1.1465293554    0.0052427080
C        3.7670383238   -0.6799469887   -0.0927472970
C        4.6202940414    1.5441470672    0.4387957044
C        2.5672923993   -1.6092903455   -0.1280453662
C        1.6352217862   -1.5977701379   -1.3288978163
N        3.5813757791    0.6440393920    0.3744876150
O        4.3951385587    2.6679795575    0.8511506760
O        2.3018030336   -2.3047498404    0.8352369586
H        7.1360947639   -0.4490026895   -0.7784075973
H        5.1790252320   -2.0691556133   -0.8492838247
H        6.7424107719    1.8743552981    0.0617198637
H        2.1056181934   -2.1282505032   -2.1607994939
H        1.4315240039   -0.5674430954   -1.6317663566
H        0.6918897047   -2.0900061852   -1.0763764091
H        2.7072675954    0.9746160144    0.7660670499
17   

C        6.0831807677   -0.0515949218   -0.5977070623
C        4.9153904775   -0.9320337403   -0.6467508212
C        5.9518615618    1.1906263111   -0.0283310109
C        3.6942522182   -0.5328527904   -0.1762688428
C        4.6694947465    1.5967812331    0.5113318850
C        2.4901168763   -1.4522332948   -0.1241555236
C        1.9160490291   -2.0330517260   -1.4077011907
N        3.5919769106    0.7453348799    0.4239014565
O        4.5180313453    2.6826092080    1.0423350888
O        2.1296882091   -1.9088465759    0.9467050932
H        7.0387123225   -0.3778216690   -0.9955604791
H        5.0319130499   -1.9305915085   -1.0545924291
H        6.7797633828    1.8822578200    0.0441270600
H        2.7170329436   -2.2442363207   -2.1202196615
H        1.2247781362   -1.3128659257   -1.8531393524
H        1.3764907434   -2.9592815799   -1.1915120071
H        2.7590840951    1.0552742123    0.9113460978
17   

C        6.0148596574   -0.0062254052   -0.7115337683
C        4.8362524857   -0.8712264875   -0.7783134840
C        5.9152564741    1.2007261607   -0.0653640163
C        3.6299478674   -0.4837633315   -0.2568374593
C        4.6540317824    1.5879248389    0.5341195632
C        2.4285075552   -1.3949924198   -0.1932650926
C        1.9894041546   -2.1960966463   -1.4118010554
N        3.5623541285    0.7582264338    0.4195063257
O        4.5358666538    2.6361149681    1.1434959056
O        1.9368128236   -1.6581980057    0.8929816472
H        6.9555368183   -0.3182989409   -1.1536917379
H        4.9421881426   -1.8482782473   -1.2365769607
H        6.7539788931    1.8768238011    0.0265348824
H        2.8532234748   -2.5275591035   -1.9916738058
H        1.3559202043   -1.5699760464   -2.0455789253
H        1.4183958951   -3.0734108085   -1.0952900632
H        2.7488653414    1.0354853402    0.9577079501
17   

C        5.9795701757    0.0335275999   -0.7635398565
C        4.7850138696   -0.8075839255   -0.8528403173
C        5.9170699694    1.2002464128   -0.0435798464
C        3.5972790777   -0.4367718741   -0.2765392429
C        4.6777950324    1.5703899540    0.6089790861
C        2.3735758340   -1.3102375635   -0.2338681400
C        2.0197295785   -2.2359306475   -1.3903519815
N        3.5701819235    0.7660332274    0.4706135053
O        4.5938389644    2.5805230448    1.2847243875
O        1.7457838108   -1.4009038984    0.8119685009
H        6.9034975099   -0.2650479468   -1.2482941588
H        4.8666473257   -1.7513756505   -1.3796630738
H        6.7691414695    1.8565015091    0.0673794913
H        2.8798744770   -2.8459486103   -1.6737310118
H        1.6997802943   -1.6394925948   -2.2488401331
H        1.2016928625   -2.9000991792   -1.0971536630
H        2.7690154631    1.0218499753    1.0380883799
17   

C        5.9502683153    0.0838724382   -0.8286862639
C        4.7376686839   -0.7309315204   -0.9200157073
C        5.9388436010    1.2040503602   -0.0358307588
C        3.5838576038   -0.3849710869   -0.2639081742
C        4.7341205815    1.5530418808    0.6890544246
C        2.3375478922   -1.2189739994   -0.2410791133
C        2.0390603236   -2.2291956705   -1.3398728792
N        3.6094312119    0.7726164714    0.5518148993
O        4.6953425148    2.5239318949    1.4238663834
O        1.6022919691   -1.1609443702    0.7366537706
H        6.8472609690   -0.1968073471   -1.3712735193
H        4.7742014321   -1.6339725152   -1.5190751082
H        6.8060100013    1.8396980192    0.0781311415
H        2.7903356580   -3.0226650945   -1.3332320425
H        2.0449549776   -1.7287363061   -2.3117805321
H        1.0530392583   -2.6737843151   -1.1774078880
H        2.8240970957    1.0162107988    1.1468646191
17   

C        5.9213977572    0.1137335966   -0.8343031859
C        4.7104396486   -0.6967258578   -0.9751631210
C        5.9203718180    1.1604181219    0.0533135590
C        3.5717258454   -0.4260322904   -0.2598670717
C        4.7276711026    1.4388055486    0.8266528046
C        2.3128572554   -1.2359473146   -0.3117005409
C        2.0916834312   -2.2971039611   -1.3804998316
N        3.6075671823    0.6601336311    0.6487753390
O        4.6952640051    2.3488040152    1.6359431066
O        1.4661278265   -1.0745732063    0.5597979753
H        6.8083001641   -0.1112895696   -1.4178707801
H        4.7357776444   -1.5331508699   -1.6647210888
H        6.7858890041    1.7905698708    0.2043308059
H        2.8260182810   -3.0985136208   -1.2664866906
H        2.1903832743   -1.8490505159   -2.3727014374
H        1.0877154563   -2.7197948162   -1.2820427485
H        2.8155632002    0.8692103281    1.2485724866
17   

C        5.9368578253    0.0968570117   -0.8680473378
C        4.7048948049   -0.6775506742   -1.0288789046
C        5.9794922151    1.0878035302    0.0804132030
C        3.5948888381   -0.4396215293   -0.2587513919
C        4.8110673529    1.3443254876    0.8970161985
C        2.2999404417   -1.1843748567   -0.3600517874
C        2.1025308199   -2.3101231477   -1.3656440469
N        3.6753594636    0.5908653396    0.7100472313
O        4.8120256850    2.2155216434    1.7485602931
O        1.3782794544   -0.8762857794    0.3874910119
H        6.8036266435   -0.1080674680   -1.4881275137
H        4.6894799756   -1.4564335786   -1.7830818438
H        6.8606223788    1.6923883913    0.2450444150
H        2.8228710508   -3.1094856327   -1.1735856349
H        2.2407321398   -1.9291345510   -2.3807803344
H        1.0909881287   -2.7161813719   -1.2749203457
H        2.8848858343    0.8109928438    1.3080686106
