24   

C       -1.2781328160   -1.2659343216    2.3558988853
C       -3.7704653441    0.3022873192    3.2429989741
C       -4.9904586694    0.8868078555    1.2460867111
C       -4.9035447164    0.6000853553    4.0100537665
C       -6.1162767641    1.1835532267    2.0224739017
C       -3.7937011450    0.4228059300    1.8364152359
C       -6.0854770212    1.0382902713    3.4100905973
C       -2.6854717471    0.1432730852    0.9320187222
C       -0.4559274074   -0.7175779381    0.1276011712
C       -1.5263417131   -0.5549163862    1.1402471041
C       -1.0324563487    0.8666829261   -3.0389172214
N       -1.0334148115   -1.8567806478    3.3295635762
N       -0.3204900450   -0.2232671789   -1.0864964332
O       -1.2756945442    0.6523597333   -1.6485696829
Cl      -7.4929704636    1.4058284964    4.3761371898
H       -2.8886310395    0.0053571136    3.7917383483
H       -5.0602633562    1.0115531597    0.1713311500
H       -4.8640937510    0.4952634341    5.0881816761
H       -7.0266494378    1.5292511528    1.5467673927
H       -2.8809219780    0.4903962611   -0.0686529302
H        0.3705344187   -1.3538497576    0.4251932290
H       -1.8512178616    1.4481161922   -3.4719858170
H       -0.9637279800   -0.0906583223   -3.5652385300
H       -0.0962264930    1.4162948517   -3.1748882077
24   

C       -1.4370497094   -1.3674277349    2.3135915719
C       -3.6799365543    0.5025457110    3.2273299134
C       -5.0665872739    0.7147059799    1.2621347233
C       -4.7930804938    0.7732110835    4.0322174987
C       -6.1729450777    0.9859040587    2.0754934224
C       -3.7981109251    0.4577746500    1.8240668906
C       -6.0477931506    1.0141373984    3.4665687169
C       -2.7027396075    0.1672812213    0.9032968785
C       -0.5344301310   -0.8381987902    0.1035017162
C       -1.6012822411   -0.6175782986    1.1064087115
C       -0.9013560795    0.9824954602   -2.9645159324
N       -1.2691798187   -1.9827296604    3.2881993918
N       -0.3377570301   -0.3005024655   -1.0828511406
O       -1.1973894457    0.6953259228   -1.5976860011
Cl      -7.4312336916    1.3494849651    4.4780148736
H       -2.7288250141    0.3545976442    3.7228716417
H       -5.2027363789    0.6943092844    0.1867023228
H       -4.6827222368    0.8004722259    5.1101123170
H       -7.1416147812    1.1739988531    1.6273370128
H       -2.9001452190    0.5056849605   -0.1014660210
H        0.2248736276   -1.5604323446    0.3830328314
H       -1.6611154899    1.6539555424   -3.3742035635
H       -0.8919514850    0.0601605070   -3.5540320604
H        0.0776621397    1.4647867919   -3.0420553837
24   

C       -1.5991348966   -1.4130349324    2.2555268295
C       -3.6268552166    0.6896172424    3.1728113888
C       -5.1322617909    0.5678907268    1.2889344638
C       -4.7156455117    0.9246411567    4.0206966546
C       -6.2155478041    0.8044208547    2.1435724104
C       -3.8174139897    0.5104993856    1.7909041406
C       -6.0178715141    0.9845274450    3.5157023220
C       -2.7281872320    0.2210183677    0.8545898188
C       -0.6435335396   -0.9400533168    0.0486616245
C       -1.6954988140   -0.6509689387    1.0481759948
C       -0.7882329792    1.0453819980   -2.9354855901
N       -1.4895808254   -2.0363192895    3.2332357563
N       -0.3925514943   -0.3866126418   -1.1196727935
O       -1.1579379372    0.6991868559   -1.6006922644
Cl      -7.3721612637    1.2766809466    4.5786807210
H       -2.6321800240    0.6612559221    3.6027766730
H       -5.3177565741    0.4207907884    0.2309041048
H       -4.5506786024    1.0609531518    5.0831812389
H       -7.2220871442    0.8447638215    1.7438791769
H       -2.9196162999    0.5711514354   -0.1482332679
H        0.0483627578   -1.7316675997    0.3148025927
H       -1.4819900606    1.7935393887   -3.3290285268
H       -0.8201338943    0.1616278085   -3.5806512290
H        0.2245825978    1.4591394542   -2.9480120882
24   

C       -1.7518902371   -1.4519596271    2.1933339128
C       -3.5937309054    0.8741198221    3.1105010965
C       -5.1726508497    0.4069260850    1.3454396928
C       -4.6544891950    1.0786822477    4.0006075597
C       -6.2292762560    0.6134744682    2.2405873253
C       -3.8387049712    0.5525955059    1.7658020581
C       -5.9805550787    0.9541270919    3.5741054162
C       -2.7520809865    0.2687134559    0.8132435211
C       -0.7571609937   -1.0257606608   -0.0111797514
C       -1.7896336607   -0.6794248021    0.9890873290
C       -0.6707239626    1.1059919850   -2.8953722685
N       -1.6921779565   -2.0864186994    3.1680857990
N       -0.4551403993   -0.4583206620   -1.1602566337
O       -1.1274390937    0.7024058357   -1.6043902492
Cl      -7.3010481043    1.2098796346    4.6877786101
H       -2.5748347338    0.9683270022    3.4697470875
H       -5.3909424941    0.1284957124    0.3206156334
H       -4.4496262161    1.3308638004    5.0345344967
H       -7.2535814808    0.5035584560    1.9041733239
H       -2.9304430886    0.6459114091   -0.1827618459
H       -0.1317639731   -1.8762350716    0.2372134919
H       -1.2939910785    1.9230889915   -3.2692487324
H       -0.7284133369    0.2687175399   -3.5981181429
H        0.3663352722    1.4496756178   -2.8352065808
24   

C       -1.9064545301   -1.5585774845    2.0808454047
C       -3.5779649367    1.0390695797    3.0225238759
C       -5.1808993591    0.2010525089    1.4263857924
C       -4.6077799592    1.2362326207    3.9500052178
C       -6.2077313091    0.3995252710    2.3573966115
C       -3.8562014732    0.5427831302    1.7410110205
C       -5.9319119367    0.9239252487    3.6246644104
C       -2.7725416628    0.2719534532    0.7684737499
C       -0.8528970711   -1.1059750304   -0.0954966131
C       -1.8775702890   -0.7419811384    0.9056471864
C       -0.5605135773    1.1794753332   -2.8450270878
N       -1.9046078482   -2.2349450135    3.0288235816
N       -0.4972877299   -0.5024185591   -1.2101589345
O       -1.0895760124    0.7193037632   -1.6015141316
Cl      -7.2150540135    1.1732668145    4.7825852003
H       -2.5558531057    1.2725829502    3.2994453314
H       -5.4141080246   -0.2211789746    0.4554373570
H       -4.3803653706    1.6287881830    4.9342085848
H       -7.2284537158    0.1405191566    2.1015272462
H       -2.9162739033    0.7251302208   -0.2013492855
H       -0.2861366655   -2.0050608935    0.1201216311
H       -1.1225781025    2.0538205174   -3.1848875992
H       -0.6364366714    0.3945630549   -3.6041583677
H        0.4907038978    1.4583245031   -2.7247652708
24   

C       -2.1254355747   -1.7787413318    1.9040758473
C       -3.6097717402    1.2638003318    2.9019942985
C       -5.1495685352   -0.0083291454    1.5500893830
C       -4.6310384910    1.5135369577    3.8265902425
C       -6.1683166749    0.2432857900    2.4769985023
C       -3.8589542731    0.5002980384    1.7545949253
C       -5.9190986475    1.0069414254    3.6225058795
C       -2.7809228899    0.2383431729    0.7674248840
C       -0.8697147150   -1.1465563702   -0.1158554797
C       -1.9584923745   -0.8398663736    0.8366322714
C       -0.4845340091    1.2011772676   -2.8020510955
N       -2.2379956431   -2.5588347241    2.7613364438
N       -0.4638322666   -0.5048651899   -1.1915559560
O       -1.0908870615    0.6869360255   -1.6165699919
Cl      -7.1914175966    1.3206554821    4.7767143966
H       -2.6165053525    1.6608555487    3.0790604927
H       -5.3598256762   -0.6059865153    0.6702101216
H       -4.4262995770    2.1025340809    4.7129397246
H       -7.1614643876   -0.1577129932    2.3118088055
H       -2.6925992127    0.9817209143   -0.0099485578
H       -0.3055667809   -2.0481228143    0.0962717101
H       -0.9863670191    2.1251764568   -3.1026191264
H       -0.5678608548    0.4728129053   -3.6145550264
H        0.5734454585    1.4155949178   -2.6221527976
24   

C       -2.3063125478   -1.9825935682    1.6969340968
C       -3.6717558338    1.4761751014    2.7343942366
C       -5.0763208709   -0.1945997034    1.7163771697
C       -4.6955006702    1.7836847128    3.6387571184
C       -6.0987420180    0.1147397561    2.6213242899
C       -3.8383306949    0.4617330580    1.7819738871
C       -5.9162887916    1.1028813784    3.5939848947
C       -2.7806753832    0.1955036753    0.7805720432
C       -0.8901398145   -1.1814815435   -0.1501975728
C       -2.0252426290   -0.9344989748    0.7637023620
C       -0.4536922737    1.2974079777   -2.7065795575
N       -2.5170801657   -2.8521917766    2.4422374985
N       -0.4522228644   -0.4806240410   -1.1750466927
O       -1.1127331731    0.6970017827   -1.5916073846
Cl      -7.1909642938    1.4861301653    4.7243305499
H       -2.7365065720    2.0225696751    2.7816070068
H       -5.2405970648   -0.9579874016    0.9639047827
H       -4.5464901255    2.5572018156    4.3830349058
H       -7.0433786090   -0.4140362239    2.5709427061
H       -2.4321765702    1.0721403573    0.2547340564
H       -0.3299633141   -2.0915038930    0.0344537269
H       -0.9050222038    2.2697442940   -2.9228690811
H       -0.5509429880    0.6571377818   -3.5885388516
H        0.6087544966    1.4428806112   -2.4870865981
24   

C       -2.4040599621   -2.0905855482    1.5690700451
C       -3.7329978862    1.6025718769    2.5981898123
C       -4.9901181546   -0.3179667533    1.8742243134
C       -4.7551945710    1.9314184905    3.4966945536
C       -6.0107874939    0.0125297372    2.7735571383
C       -3.8186970429    0.4536530014    1.7981605649
C       -5.9006006100    1.1364966907    3.5973312330
C       -2.7702458919    0.1739658063    0.8026811958
C       -0.9662605806   -1.2431528257   -0.2355170022
C       -2.0825399778   -0.9979280298    0.7024905639
C       -0.3866819636    1.3836335970   -2.6097754216
N       -2.6545761794   -2.9976028298    2.2551704490
N       -0.4946397244   -0.5007031990   -1.2152861706
O       -1.0914591932    0.7353600201   -1.5509494119
Cl      -7.1731993351    1.5466618456    4.7205341838
H       -2.8596604534    2.2416821470    2.5326984092
H       -5.1095470482   -1.1859580898    1.2351588291
H       -4.6640966987    2.8115976809    4.1223910327
H       -6.8989151435   -0.6057362058    2.8329389302
H       -2.3566165961    1.0568516916    0.3384445271
H       -0.4541780783   -2.1915737572   -0.1157116312
H       -0.7796699658    2.3943713623   -2.7507929391
H       -0.5100705630    0.8218868389   -3.5405846303
H        0.6798101925    1.4502095783   -2.3723446946
24   

C       -2.4674504766   -2.1954159183    1.4683328883
C       -3.8028999387    1.6722981159    2.4542650384
C       -4.9153170383   -0.4207628781    2.0429124787
C       -4.8094844224    2.0285666355    3.3595851134
C       -5.9198481150   -0.0618973160    2.9496684548
C       -3.8191535004    0.4288226513    1.8019796723
C       -5.8739381945    1.1625570136    3.6207864652
C       -2.7753754639    0.1255000407    0.8199558773
C       -1.0705514312   -1.3174801304   -0.3452196079
C       -2.1478895431   -1.0738024070    0.6391497175
C       -0.3382556927    1.4421317346   -2.5168290216
N       -2.7180197468   -3.1270495125    2.1207364810
N       -0.5806532343   -0.5442232292   -1.2919588588
O       -1.1077115488    0.7433202828   -1.5381568088
Cl      -7.1273940992    1.6073711928    4.7522891988
H       -2.9935137510    2.3694377151    2.2688559487
H       -5.0068950398   -1.3671526293    1.5225729227
H       -4.7687179767    2.9859248515    3.8658970962
H       -6.7475300865   -0.7374337796    3.1319734015
H       -2.3362518650    1.0043680135    0.3731550919
H       -0.6050008273   -2.2957186804   -0.2951832281
H       -0.6819276913    2.4779512376   -2.5867023369
H       -0.4523118523    0.9636080557   -3.4941425602
H        0.7209916665    1.4404094280   -2.2406456013
24   

C       -2.2733663709   -2.2025438763    1.9976960334
C       -3.9751265962    1.6758228112    2.9373681248
C       -4.7587528948   -0.4140081401    2.0437311949
C       -5.2721268744    1.9787933766    3.3673290864
C       -6.0545338914   -0.1074421239    2.4770083316
C       -3.6820258164    0.4639956177    2.2867020419
C       -6.3232988517    1.0877280007    3.1465558482
C       -2.3100903529    0.2317137599    1.8448447027
C       -0.2624556906   -1.0790282429    1.1797552046
C       -1.6589286615   -0.9563694792    1.6571434247
C        1.3756144048    2.0112717134    0.3903629248
N       -2.7484738454   -3.2341063039    2.2561542492
N        0.5913891528   -0.1690784787    0.7575972090
O        0.2365212720    1.1950063994    0.6634028535
Cl      -7.9409372654    1.4658741703    3.6846557077
H       -3.1855955166    2.3944254905    3.1264779427
H       -4.6279527971   -1.3376238405    1.4949520236
H       -5.4689822513    2.9142076385    3.8780475536
H       -6.8641900968   -0.8020090950    2.2851887683
H       -1.7247146310    1.1367213984    1.8119099565
H        0.1377036874   -2.0870048962    1.1664375394
H        1.0986006197    3.0670590899    0.4575108896
H        1.7503331549    1.8058984434   -0.6168537918
H        2.1712751873    1.8094511494    1.1146124385
24   

C       -2.2782471644   -2.2651927624    1.8152367044
C       -3.9961506746    1.7217359960    2.7601750683
C       -4.7500853089   -0.5027056508    2.2505015989
C       -5.2772662857    2.0542219400    3.2139079997
C       -6.0301121383   -0.1642025002    2.7075639566
C       -3.6928792103    0.4336197520    2.2785337927
C       -6.3060763607    1.1132684891    3.1958312382
C       -2.3293197772    0.1864521292    1.8271843570
C       -0.2975236074   -1.0806369082    1.0395926845
C       -1.6857161834   -0.9904576275    1.5528313242
C        1.4136248400    2.0354500314    0.5651793484
N       -2.7204049119   -3.3251763499    2.0102046433
N        0.5684310002   -0.1497929539    0.6924476153
O        0.2520342438    1.2256114461    0.7470288816
Cl      -7.9050727324    1.5279493124    3.7619993801
H       -3.2268161109    2.4849486371    2.7944501752
H       -4.6440548942   -1.5015433702    1.8547572065
H       -5.4786292421    3.0523359392    3.5851871760
H       -6.8237639901   -0.9017854681    2.6762844539
H       -1.7504789271    1.0933484356    1.7792779714
H        0.0892598201   -2.0874532148    0.9246237104
H        1.1607200627    3.0866403712    0.7295387290
H        1.7966596554    1.9175517125   -0.4528938604
H        2.1943834882    1.7459960685    1.2757315936
24   

C       -2.3531074833   -2.2647335838    1.4858522157
C       -4.0373094486    1.7617564693    2.5824471115
C       -4.7032566264   -0.5445049875    2.4588031237
C       -5.3148300196    2.1102322996    3.0331907627
C       -5.9805343267   -0.1874771926    2.9107331202
C       -3.6934809692    0.4284330712    2.2824798444
C       -6.2995222104    1.1386859982    3.2019286492
C       -2.3348400776    0.1771583629    1.8211768063
C       -0.3013077756   -1.0635512343    1.0022402898
C       -1.7116454066   -0.9874404719    1.4588991893
C        1.5224258033    2.0303929992    0.8201360031
N       -2.8188353022   -3.3327162733    1.4860265903
N        0.6189149494   -0.1357264991    0.8273658754
O        0.3667874119    1.2318323448    1.0732182113
Cl      -7.8947675081    1.5722319648    3.7645484187
H       -3.3050315893    2.5529699175    2.4669006203
H       -4.5754186037   -1.5965051118    2.2663381029
H       -5.5477909496    3.1451325619    3.2553621300
H       -6.7376020377   -0.9528107108    3.0376424890
H       -1.7596484836    1.0851745170    1.7755303981
H        0.0535903098   -2.0602180301    0.7627190204
H        1.2987466864    3.0801714188    1.0297281101
H        1.8242081738    1.9352478659   -0.2274412727
H        2.3499508163    1.7104345276    1.4608108490
24   

C       -2.4824317073   -2.1770122041    1.1737173822
C       -4.1145119886    1.7727754930    2.3875967128
C       -4.6148144859   -0.5605952122    2.6728124839
C       -5.3951954575    2.1051081981    2.8426736124
C       -5.8960279524   -0.2215621816    3.1261276042
C       -3.6926259620    0.4337010917    2.2776639051
C       -6.3001581066    1.1109807603    3.2127174799
C       -2.3392001839    0.1908555698    1.7946307267
C       -0.3269548064   -1.0677017430    0.9458632777
C       -1.7482016734   -0.9634153387    1.3553504108
C        1.5909216480    1.9578493117    1.1246261221
N       -3.0384639679   -3.1878691469    1.0122434215
N        0.6528322096   -0.1863933641    0.9572310514
O        0.4713231659    1.1292445304    1.4378708161
Cl      -7.8985451327    1.5254539562    3.7807559614
H       -3.4449636346    2.5788366238    2.1091853374
H       -4.3805184064   -1.6144634864    2.6784926267
H       -5.6934775854    3.1448635708    2.9102220339
H       -6.5851750338   -1.0040213578    3.4223098354
H       -1.7675646181    1.1008327773    1.7234544910
H       -0.0243049179   -2.0375574185    0.5660209043
H        1.3724279834    2.9936410545    1.3991615702
H        1.8072131010    1.9160567605    0.0523698163
H        2.4721228176    1.6219581416    1.6793720206
24   

C       -2.5851632404   -2.0890484361    1.0446090291
C       -4.2092354959    1.7544030382    2.2265761343
C       -4.5040965444   -0.5452241232    2.8624679702
C       -5.4922900156    2.0505569699    2.7008479498
C       -5.7877706413   -0.2447408207    3.3343405001
C       -3.6928330396    0.4471586397    2.2741271506
C       -6.2962753778    1.0529110548    3.2539988442
C       -2.3362554356    0.2226941760    1.7834328810
C       -0.3847233908   -1.0485566162    0.8207126609
C       -1.7901876614   -0.9211735942    1.2695007613
C        1.6517198979    1.8665402048    1.2812216547
N       -3.2022742134   -3.0590749983    0.8578691239
N        0.6266519557   -0.2076487285    0.8931194732
O        0.4974073904    1.0575495081    1.5080623950
Cl      -7.8975730440    1.4229351314    3.8441133764
H       -3.6148195494    2.5570985741    1.8048435729
H       -4.1562846030   -1.5617429466    2.9930656510
H       -5.8716253272    3.0640045258    2.6407232259
H       -6.3952589263   -1.0264625410    3.7755075673
H       -1.7675644323    1.1348667621    1.6972049392
H       -0.1291678689   -1.9936907289    0.3540924581
H        1.4715126115    2.8798857691    1.6507976895
H        1.8770962720    1.9170470030    0.2111784610
H        2.5134732495    1.4448296037    1.8071757866
24   

C       -2.6698376131   -1.9958175888    0.9641825277
C       -4.2958689212    1.7215019232    2.0808163480
C       -4.3911863389   -0.4900534415    3.0226822231
C       -5.5808266581    1.9845235794    2.5701831161
C       -5.6765063201   -0.2242304423    3.5098469450
C       -3.6882884040    0.4696779680    2.2700833705
C       -6.2858995763    1.0123744221    3.2836436991
C       -2.3200100562    0.2621683884    1.7899872250
C       -0.4412417858   -1.0100361097    0.6954833772
C       -1.8252607721   -0.8645447917    1.1978699391
C        1.7263649216    1.7660706584    1.3752795960
N       -3.3322249183   -2.9347071034    0.7742127196
N        0.5987061388   -0.2085601230    0.7974826591
O        0.5243352065    1.0080220852    1.5120150576
Cl      -7.8896799636    1.3411421912    3.8911882065
H       -3.7727178599    2.4994552136    1.5362178331
H       -3.9453210390   -1.4520754858    3.2474209295
H       -6.0387789538    2.9515316994    2.3977877419
H       -6.2063248215   -0.9827811642    4.0742404657
H       -1.7477576901    1.1739634480    1.7124394321
H       -0.2332493340   -1.9300186216    0.1601678187
H        1.5916773491    2.7560916952    1.8198394129
H        1.9821556101    1.8867324389    0.3177840730
H        2.5498681904    1.2570887575    1.8850999295
24   

C       -2.7297968599   -1.8867781590    0.8732231946
C       -4.3885226873    1.6604321255    1.9415805601
C       -4.2807531528   -0.4013307579    3.1789364435
C       -5.6734154841    1.8945704780    2.4461067611
C       -5.5657329509   -0.1653195460    3.6818462159
C       -3.6862883266    0.4921697844    2.2723346694
C       -6.2764936391    0.9813832907    3.3158172505
C       -2.3051512318    0.3077274377    1.7967008725
C       -0.4901255992   -0.9235332466    0.5594633179
C       -1.8518796346   -0.7833601709    1.1180459170
C        1.7860829101    1.6999693334    1.4585529027
N       -3.4216442362   -2.8015739985    0.6715637240
N        0.5703898039   -0.1542364801    0.6901620244
O        0.5421648445    1.0009165757    1.5035043821
Cl      -7.8801819976    1.2738437336    3.9418922516
H       -3.9396295359    2.3897996471    1.2767562908
H       -3.7454534257   -1.2906337475    3.4930595191
H       -6.2106496764    2.7926716815    2.1644964792
H       -6.0168817083   -0.8756368231    4.3648277362
H       -1.7306393530    1.2207949537    1.7483273491
H       -0.3215834800   -1.8069771506   -0.0465106291
H        1.6935886376    2.6532307202    1.9864270960
H        2.0738320195    1.8980108966    0.4211707822
H        2.5683812512    1.1035650400    1.9376441471
24   

C       -2.8007516280   -1.7605431060    0.7368119459
C       -4.4771096780    1.5474805672    1.8092117987
C       -4.1805235947   -0.2847690089    3.3438705214
C       -5.7661814746    1.7590960130    2.3131949732
C       -5.4695553302   -0.0712254744    3.8466368624
C       -3.6799458227    0.5031366708    2.2969097657
C       -6.2762088858    0.9490821090    3.3327781137
C       -2.2906528192    0.3347038069    1.8132430725
C       -0.5331915386   -0.8457502327    0.4519000321
C       -1.8815513458   -0.7065345451    1.0410199660
C        1.8450860642    1.6040867281    1.5528928096
N       -3.5273041870   -2.6331743434    0.4784783201
N        0.5530371888   -0.1231375463    0.6285452926
O        0.5696559702    0.9631374647    1.5321116882
Cl      -7.8850425793    1.2130131379    3.9583639234
H       -4.0986147762    2.1929962198    1.0246620296
H       -3.5673506610   -1.0755300140    3.7618142398
H       -6.3795914904    2.5581638578    1.9135687082
H       -5.8502375470   -0.7002746101    4.6427885581
H       -1.6935344445    1.2340957927    1.8462947830
H       -0.4017080580   -1.6836203771   -0.2239085886
H        1.7920098639    2.5130762963    2.1585651045
H        2.1512724300    1.8744248311    0.5373704331
H        2.5944106643    0.9335934608    1.9844243018
24   

C       -2.8983910787   -1.5265933373    0.4991227849
C       -4.5765784480    1.3523062795    1.6566587449
C       -4.0787118184   -0.1187921083    3.5019260073
C       -5.8830009983    1.5075973964    2.1355823301
C       -5.3860503467    0.0386792488    3.9777311990
C       -3.6613991638    0.5378197939    2.3353332071
C       -6.2994047364    0.8536989007    3.3002347097
C       -2.2727705683    0.3747913830    1.8349642537
C       -0.5455176063   -0.8084476343    0.4324796061
C       -1.9098598969   -0.6016636496    0.9640328724
C        1.9172203096    1.5270362929    1.5970660217
N       -3.6811728023   -2.2930062456    0.1041835576
N        0.5710459697   -0.1460654793    0.6519706612
O        0.6060066590    0.9684492252    1.5184882301
Cl      -7.9290791087    1.0498664888    3.8961268896
H       -4.2729829601    1.8633038210    0.7498518129
H       -3.3858110422   -0.7580646264    4.0374661190
H       -6.5840338751    2.1375933434    1.6006915205
H       -5.6999603554   -0.4761515250    4.8781975204
H       -1.5686881176    1.0980590476    2.2169087278
H       -0.4341522009   -1.6410666903   -0.2533974839
H        1.9124636961    2.3869563163    2.2726892268
H        2.2466319853    1.8568490275    0.6069358833
H        2.6223973495    0.7817976235    1.9778266514
24   

C       -2.9617243039   -1.2820610925    0.2518504835
C       -4.6671477785    1.1338425510    1.5434660689
C       -3.9880707729    0.0947509093    3.6117530476
C       -5.9770468379    1.2348940086    2.0267906334
C       -5.2996702832    0.1975078186    4.0909937769
C       -3.6519687322    0.5852748686    2.3401144060
C       -6.3043063353    0.7732342235    3.3060176090
C       -2.2745298067    0.4163310155    1.8226651801
C       -0.5624650292   -0.7619182935    0.4047592861
C       -1.9398718424   -0.4912049836    0.8676235329
C        1.9235935156    1.4811337820    1.6919007718
N       -3.7735514530   -1.9347663765   -0.2687793797
N        0.5676237028   -0.1470456739    0.6840988729
O        0.5932267774    0.9934844968    1.5177952985
Cl      -7.9385632606    0.9027627884    3.9075460957
H       -4.4371117084    1.4832555998    0.5430075983
H       -3.2279774347   -0.3690927790    4.2302272832
H       -6.7505357297    1.6688940896    1.4040291944
H       -5.5467607942   -0.1765790271    5.0776222523
H       -1.5030887015    0.8321814676    2.4539469253
H       -0.4555657712   -1.5887549576   -0.2887698324
H        1.9295530539    2.2803146399    2.4383403790
H        2.3044790533    1.8768113943    0.7455175574
H        2.5821477068    0.6757927551    2.0322974451
24   

C       -2.9913810915   -1.1586972502    0.0725227823
C       -4.7464151602    0.9702639340    1.4980092452
C       -3.9207629511    0.2964010866    3.6637401211
C       -6.0380595311    1.0758140409    2.0270537952
C       -5.2149283011    0.4044712471    4.1870412274
C       -3.6664225934    0.5959790239    2.3136018339
C       -6.2838755587    0.7979058946    3.3754528754
C       -2.3050202075    0.4131539902    1.7825601359
C       -0.5940808368   -0.6712499732    0.2888029533
C       -1.9741429113   -0.4198921491    0.7565050256
C        1.9152450821    1.3973878438    1.8036994754
N       -3.8007018466   -1.7625863804   -0.5076169449
N        0.5415175312   -0.0973998386    0.6275241808
O        0.5760621636    0.9736793681    1.5484873777
Cl      -7.8967572981    0.9304704244    4.0315197548
H       -4.5853400196    1.1829679627    0.4468706946
H       -3.1115264234   -0.0254908539    4.3094630382
H       -6.8607837331    1.3703153138    1.3859910758
H       -5.3981582413    0.1760276942    5.2304491279
H       -1.5242476828    0.7475867735    2.4493857807
H       -0.4890828847   -1.4429017790   -0.4659511790
H        1.9222978337    2.1334225637    2.6124662337
H        2.3414198044    1.8535324990    0.9050735657
H        2.5345261990    0.5441836337    2.0982082355
24   

C       -2.9770078542   -1.1003986350   -0.0854594557
C       -4.8122866116    0.7848956800    1.4792181672
C       -3.8572551228    0.4598170298    3.6730562081
C       -6.0806844811    0.9158684140    2.0567958146
C       -5.1291051339    0.5930523425    4.2427307740
C       -3.6781661000    0.5576892843    2.2793291669
C       -6.2513771309    0.8217259944    3.4411491276
C       -2.3295670035    0.3707284678    1.7380345428
C       -0.5976771785   -0.5712988990    0.1708037900
C       -1.9841849656   -0.3786066222    0.6501094653
C        1.8973581400    1.3232071297    1.9184099991
N       -3.7658207387   -1.6876143212   -0.7094419490
N        0.5316994020   -0.0182476858    0.5619061496
O        0.5583884104    0.9665886977    1.5746037282
Cl      -7.8364482109    0.9845976849    4.1555730781
H       -4.7214402050    0.8750062331    0.4027973765
H       -3.0072028570    0.2716764957    4.3191925710
H       -6.9439764195    1.0911404508    1.4253878633
H       -5.2526364944    0.5142257553    5.3165215604
H       -1.5479825727    0.6771303723    2.4163651325
H       -0.4794238181   -1.2764655295   -0.6446467898
H        1.8920653597    1.9806656123    2.7922738806
H        2.3714350096    1.8470593010    1.0829636223
H        2.4810265901    0.4278304829    2.1548718764
24   

C       -2.9449408266   -1.0331587514   -0.2517152578
C       -4.8735734242    0.5957929275    1.4801077960
C       -3.7998424452    0.6202071600    3.6427355037
C       -6.1162138767    0.7589145596    2.1041531319
C       -5.0468107523    0.7847391690    4.2568403157
C       -3.6901476515    0.5129796329    2.2400943754
C       -6.2157132734    0.8519727331    3.4947682221
C       -2.3529707718    0.3251781605    1.6844087405
C       -0.5895821290   -0.4549117194    0.0608405676
C       -1.9843552283   -0.3311422658    0.5425998709
C        1.8802078975    1.2422476752    2.0311865907
N       -3.7035759503   -1.6059810432   -0.9247566419
N        0.5306883276    0.0743587414    0.5082030027
O        0.5458478598    0.9566392241    1.6113769193
Cl      -7.7698861281    1.0537779057    4.2649679458
H       -4.8581508287    0.5605600739    0.3981764127
H       -2.9147757159    0.5652115217    4.2665487955
H       -7.0158802066    0.8176477518    1.5025466196
H       -5.1136484815    0.8583209094    5.3360366286
H       -1.5724625576    0.6215937189    2.3669352687
H       -0.4532317870   -1.0826773041   -0.8130138898
H        1.8602120986    1.8130703523    2.9637644501
H        2.3954346373    1.8304439248    1.2659096379
H        2.4338174423    0.3129315708    2.1991579510
24   

C       -2.9245093583   -0.9226935376   -0.4107197928
C       -4.9311168442    0.3851078926    1.5176711606
C       -3.7690450264    0.7738806212    3.5951830499
C       -6.1519238385    0.5749412208    2.1768506235
C       -4.9945814418    0.9637749224    4.2435002934
C       -3.7078099340    0.4632814722    2.2183410361
C       -6.1969250911    0.8611094501    3.5425145639
C       -2.3785682327    0.2853814995    1.6476461740
C       -0.5906080547   -0.3393185162   -0.0166855334
C       -1.9932225468   -0.2726569041    0.4582696633
C        1.8705497008    1.1283952505    2.1417820996
N       -3.6482213993   -1.4592606120   -1.1491898091
N        0.5255947695    0.1450495679    0.4893675026
O        0.5383803132    0.9072035265    1.6785422568
Cl      -7.7249406740    1.0949611970    4.3548304775
H       -4.9871868055    0.2043991443    0.4541071234
H       -2.8598849574    0.8604862555    4.1795256213
H       -7.0789631237    0.5049961249    1.6195271205
H       -5.0175194211    1.1920368503    5.3027217894
H       -1.5997073267    0.5790212778    2.3313462250
H       -0.4410413123   -0.8782095666   -0.9460209623
H        1.8453658489    1.6131668533    3.1217503673
H        2.4085628379    1.7732964446    1.4405438492
H        2.4045644298    0.1772252687    2.2331880761
24   

C       -2.9225421173   -0.6403589290   -0.5814979423
C       -4.9507884419    0.1259393855    1.6127475593
C       -3.7594659596    0.9528811709    3.5348599623
C       -6.1598532455    0.3241799329    2.2912327434
C       -4.9729374694    1.1472142862    4.2037543159
C       -3.7113908060    0.4357510970    2.2202635520
C       -6.1845005510    0.8346828354    3.5889719120
C       -2.3866524486    0.2816717306    1.6344289465
C       -0.5832636491   -0.2680836629   -0.0392199754
C       -1.9963171791   -0.1813317332    0.4059734288
C        1.9221691991    0.8717542472    2.2748416711
N       -3.6274672430   -1.0267287379   -1.4248259521
N        0.5473854872    0.0612085673    0.5535443357
O        0.5830994026    0.6177293872    1.8510142362
Cl      -7.6984786078    1.0773794842    4.4246158189
H       -5.0484381050   -0.2715585187    0.6155931739
H       -2.8449212937    1.2118558530    4.0565143697
H       -7.0952968791    0.0778149652    1.8020875341
H       -4.9784041267    1.5451013131    5.2118465832
H       -1.6128979521    0.5903869192    2.3151609155
H       -0.4367194003   -0.6737074059   -1.0345013363
H        1.9165990376    1.2860412999    3.2869433868
H        2.4007722129    1.5893425233    1.6014030486
H        2.5003811262   -0.0573935859    2.2763656032
