16

C      1.19148   -0.74797   -0.63561
C      0.74367   -0.38825    1.76842
C      0.39002   -0.23340    0.39869
C      1.94728   -1.09467    2.00413
C      2.73482   -1.60155    0.99110
C      2.35852   -1.42890   -0.35403
N      0.05164    0.07913    2.83618
N     -0.82068    0.46238    0.00747
O     -1.07446    0.57267   -1.19599
O     -1.55842    0.91994    0.90538
F      2.32269   -1.26968    3.29300
F      3.85447   -2.25525    1.31282
Br     3.45762   -2.13358   -1.73591
H      0.86798   -0.59626   -1.65759
H     -0.83108    0.54867    2.68231
H      0.37837   -0.13203    3.76819
