21

C      0.96052   -1.91780    3.24682
C     -0.22689   -2.20336    2.57298
C      1.49580   -0.63032    3.19058
C     -0.86412   -1.17875    1.85866
C      0.78580    0.30634    2.43646
C     -3.15770   -2.36262    1.51121
C     -2.66965   -0.25632    0.21607
C     -1.93635   -1.34498   -0.48378
C     -2.10105   -1.41864    1.04458
N     -0.34173    0.05993    1.79695
O     -4.06737   -2.77997    0.81564
O     -3.06143   -2.69314    2.82816
Cl     1.41961    1.94740    2.31245
H      1.47130   -2.69395    3.81054
H     -0.65437   -3.19804    2.60607
H      2.41611   -0.36174    3.69688
H     -2.16925    0.69236    0.36783
H     -3.74968   -0.23484    0.12386
H     -2.50576   -2.07026   -1.05485
H     -0.92584   -1.14347   -0.82427
H     -3.83102   -3.26656    3.01013
