26

C      0.80689   -0.91555   -0.49617
C     -0.19842   -0.23886    0.20120
C      1.77356   -1.62396    1.58432
C      1.80676   -1.62052    0.18358
C     -0.22193   -0.24616    1.59841
C      0.78058   -0.94669    2.30018
C      2.87880   -2.38301   -0.56175
C     -0.11430    3.07647    2.89012
C     -0.90218    2.71432    1.62677
C     -1.85029    1.53378    1.83323
O     -1.19339    0.36659    2.35628
S      0.83802   -0.98332    4.07937
H      0.80570   -0.89061   -1.58330
H     -0.96389    0.29436   -0.35281
H      2.54354   -2.16153    2.13447
H      3.84892   -2.30235   -0.06118
H      2.63205   -3.44969   -0.62680
H      2.99505   -2.00923   -1.58318
H     -0.78693    3.30404    3.72541
H      0.53555    2.25270    3.19870
H      0.51569    3.95467    2.71713
H     -0.20902    2.49631    0.80758
H     -1.51319    3.56577    1.30025
H     -2.59680    1.77369    2.59546
H     -2.38852    1.28546    0.91054
H     -0.29712   -0.28469    4.26921
