25

C      1.79187   -2.64783    1.67548
C      0.65398   -1.96079    2.08350
C      2.82901   -1.95685    1.05103
C     -4.09766    4.55896    3.06718
C      0.50831   -0.57217    1.88632
C      2.71119   -0.58039    0.84296
C      1.56641    0.12732    1.25025
C     -2.73112    2.88371    2.75277
C     -0.74893    0.00296    2.37237
N     -3.03069    5.02012    2.47556
N     -2.14652    3.95678    2.26821
N     -1.08289    1.24403    2.29285
N     -3.96887    3.19342    3.27380
N     -4.82903    2.25308    3.86082
N     -2.28596    1.58394    2.79950
Cl     4.04242    0.23494    0.05515
Cl     1.47922    1.83605    0.96378
H      1.87598   -3.71786    1.84078
H     -0.15324   -2.50228    2.57026
H      3.72769   -2.46856    0.72289
H     -4.97005    5.12563    3.36617
H     -1.42859   -0.72748    2.83481
H     -5.70973    2.23192    3.34810
H     -5.01316    2.51827    4.82765
H     -2.91182    0.89612    3.22176
