35

C      4.39899   -0.52087   -1.07805
C      4.34734   -1.41866    0.00420
C      0.22170   -1.15182   -1.53243
C      0.28479   -0.34097    1.93712
C      0.12006   -1.52620    0.95377
C     -1.40137    0.00657   -0.17633
C     -0.73908    1.31238    0.32146
C      0.51105    0.98515    1.19815
C     -1.80322    2.17657    1.00934
C      0.87080    2.10800    2.17574
C      1.36516   -2.17326   -1.68158
N      3.31027   -0.70131   -1.83570
N      3.22751   -2.14341   -0.09955
N      2.65077   -1.67650   -1.21157
N     -0.42332   -1.06537   -0.33063
O     -0.11822   -0.49395   -2.51696
O      1.65730    0.73197    0.35673
H      5.14460    0.21660   -1.34257
H      5.03880   -1.57596    0.82062
H     -0.59920   -0.23889    2.57568
H      1.13536   -0.54071    2.59544
H      1.08359   -2.00215    0.80094
H     -0.56142   -2.27200    1.38306
H     -2.14644   -0.33204    0.55403
H     -1.90702    0.16713   -1.12754
H     -0.37563    1.86018   -0.55751
H     -2.15386    1.71468    1.93980
H     -2.67317    2.29078    0.35309
H     -1.43628    3.17816    1.24632
H      1.00772    3.05772    1.64581
H      1.81419    1.85935    2.66977
H      0.10469    2.25508    2.94269
H      1.44804   -2.37389   -2.74966
H      1.17448   -3.10322   -1.14637
H      1.69919    1.40415   -0.34151
