15

C      0.88690    1.35846    0.14477
C      0.49512    0.16443   -0.30547
C      0.91864   -1.08849    0.38925
O      1.55658   -1.13584    1.41775
O     -2.37193   -0.59656   -0.12281
O      0.51653   -2.22064   -0.27267
O     -1.57420   -1.95398   -2.26838
O     -2.50236    0.27847   -2.58773
O     -0.23962    0.04092   -1.47399
P     -1.75604   -0.58550   -1.46391
H      0.58679    2.26721   -0.36587
H      1.51941    1.41829    1.02257
H      0.80146   -2.97005    0.28563
H     -0.86351   -2.48484   -1.85980
H     -3.16868    0.86234   -2.18684
