17   

C        5.9158521598    0.1245285039   -0.8427790902
C        4.6764425716   -0.6282312984   -1.0436197808
C        5.9741689202    1.0500045869    0.1689331136
C        3.5816452153   -0.4470019345   -0.2372720023
C        4.8146093627    1.2603977343    1.0111314800
C        2.2659951024   -1.1421536125   -0.4086026817
C        2.1075632348   -2.3280659280   -1.3497843133
N        3.6763778184    0.5186271825    0.7948159756
O        4.8242463338    2.0843596864    1.9084029959
O        1.2844112229   -0.7092932295    0.1842437942
H        6.7741295799   -0.0417736033   -1.4858065664
H        4.6406100704   -1.3400600719   -1.8607794057
H        6.8598145298    1.6392563739    0.3624004211
H        2.8164825246   -3.1141603114   -1.0769386497
H        2.2903112967   -2.0123242710   -2.3800315424
H        1.0919024759   -2.7272771928   -1.2764446251
H        2.8787424250    0.7381232153    1.3833152168
17   

C        5.9079747414    0.1528480106   -0.8595982217
C        4.6589055294   -0.5745044709   -1.0908287193
C        5.9890273990    1.0089948999    0.2099259373
C        3.5834660551   -0.4497416214   -0.2487894074
C        4.8432078152    1.1730585990    1.0809013106
C        2.2471792405   -1.0928431639   -0.4736933631
C        2.1024882193   -2.3407471685   -1.3332313871
N        3.6987490248    0.4483619482    0.8404132763
O        4.8687074351    1.9445891834    2.0233294320
O        1.2419971995   -0.5386245452   -0.0465966649
H        6.7539932115    0.0251103507   -1.5272152058
H        4.5971822045   -1.2172855738   -1.9618579553
H        6.8814240131    1.5797458878    0.4264502091
H        2.7448699308   -3.1339392089   -0.9417091467
H        2.3838015298   -2.1193494395   -2.3656402719
H        1.0646331583   -2.6854679444   -1.3153671833
H        2.9024989032    0.6663354374    1.4308884275
17   

C        5.8956778370    0.2012279878   -0.9323449326
C        4.6328663803   -0.5018082196   -1.1635495827
C        6.0321053388    0.9650129894    0.1996923697
C        3.6045282893   -0.4538555016   -0.2576512753
C        4.9292380629    1.0586993890    1.1343347636
C        2.2465296070   -1.0559567065   -0.4933323175
C        2.0801107705   -2.3589224668   -1.2641538151
N        3.7723249204    0.3541491697    0.8932924727
O        5.0007245793    1.7538768802    2.1321658619
O        1.2512824461   -0.4054407909   -0.2061265544
H        6.7073697597    0.1300841628   -1.6491921882
H        4.5223791760   -1.0566358982   -2.0881608550
H        6.9362956007    1.5157889802    0.4189982253
H        2.4656221683   -3.1878939383   -0.6647420717
H        2.6183467451   -2.3175080805   -2.2132897172
H        1.0206091534   -2.5351992025   -1.4706777906
H        3.0021144277    0.5467525267    1.5249703391
17   

C        5.8836029329    0.2582817899   -0.9781711128
C        4.6132479791   -0.4209492860   -1.2363174634
C        6.0403605334    0.9450815366    0.1999126394
C        3.6013425379   -0.4282471819   -0.3126142550
C        4.9507352521    0.9836509687    1.1544693044
C        2.2352875803   -1.0068648768   -0.5900788114
C        2.0829501703   -2.3860420478   -1.2178047033
N        3.7851199228    0.3038179323    0.8852622711
O        5.0406362073    1.6093982338    2.1957962460
O        1.2549137168   -0.2830536710   -0.5134046149
H        6.6840310754    0.2309572605   -1.7105198919
H        4.4775945001   -0.9081830376   -2.1955156245
H        6.9508705968    1.4757275249    0.4415698413
H        2.1350027344   -3.1464227421   -0.4341492900
H        2.8756348028   -2.5722785166   -1.9453171056
H        1.1154898213   -2.4614214515   -1.7220343711
H        3.0271711921    0.4674842874    1.5387348045
17   

C        5.8667963929    0.3797743379   -1.0421655997
C        4.5899982013   -0.2778304771   -1.3226331220
C        6.0452657431    0.9858814060    0.1765707450
C        3.5912782317   -0.3358162693   -0.3893739771
C        4.9707006477    0.9642575927    1.1489272831
C        2.2241240464   -0.9227172934   -0.6800819235
C        2.0872052038   -2.3889208783   -1.0620188693
N        3.7946227308    0.3145638898    0.8516373711
O        5.0829258807    1.5083065370    2.2330609309
O        1.2725267753   -0.1776292616   -0.8361910436
H        6.6554690980    0.3967848805   -1.7874552987
H        4.4330535645   -0.7154140118   -2.3028979744
H        6.9627022485    1.4942745037    0.4390035813
H        2.0415788265   -2.9963434381   -0.1543283382
H        2.9447294448   -2.7071555640   -1.6597175718
H        1.1718314559   -2.5416808050   -1.6403876162
H        3.0559939557    0.4288952263    1.5362786783
17   

C        5.8226429865    0.5267112503   -1.1289760816
C        4.5511075813   -0.1149899769   -1.4645072484
C        6.0047948986    1.0086878149    0.1435070707
C        3.5478537131   -0.2468975202   -0.5457813942
C        4.9392067142    0.8744908640    1.1166460046
C        2.2190782802   -0.9123643688   -0.8553202577
C        2.0182807621   -2.3859387943   -0.5403711868
N        3.7625095595    0.2562205421    0.7605477572
O        5.0612229738    1.2864764050    2.2564315706
O        1.2871430145   -0.2533364983   -1.2786800561
H        6.6064900688    0.6226365867   -1.8733913673
H        4.4000437853   -0.4877256506   -2.4723875430
H        6.9207764355    1.4943007573    0.4504443962
H        2.4318549081   -2.6153804179    0.4450770319
H        2.5294448164   -2.9925694896   -1.2923373515
H        0.9520793122   -2.6290699827   -0.5467881156
H        3.0419992455    0.2703938567    1.4728285764
17   

C        5.7974501649    0.6506521659   -1.1635236059
C        4.5367766902    0.0094347126   -1.5381775611
C        5.9881632720    1.0202684819    0.1447216888
C        3.5413465505   -0.2103252775   -0.6269185319
C        4.9418645248    0.7708682122    1.1158295668
C        2.2620803939   -0.9397178983   -0.9788140454
C        1.9375262993   -2.2635495285   -0.3017556115
N        3.7713773082    0.1649550183    0.7202596588
O        5.0751656009    1.0697878072    2.2890599265
O        1.3949635532   -0.3917246713   -1.6356852497
H        6.5680664088    0.8293669216   -1.9064989151
H        4.3862063518   -0.2948645718   -2.5691217101
H        6.8983899750    1.4962839243    0.4823024777
H        2.2958905010   -2.2635212111    0.7304493384
H        2.4260615773   -3.0759418682   -0.8461961542
H        0.8569901793   -2.4316408097   -0.3049067624
H        3.0721018750    0.0818952023    1.4484014456
17   

C        5.7613837905    0.7971998135   -1.1484610215
C        4.5144051611    0.1466355658   -1.5509756486
C        5.9762197732    1.0477477736    0.1842006890
C        3.5492855179   -0.1866642816   -0.6395001967
C        4.9682140900    0.6668785373    1.1535468920
C        2.3169975310   -0.9543562677   -1.0464371933
C        1.8921431442   -2.1857151530   -0.2586333210
N        3.8063340199    0.0616295572    0.7321997162
O        5.1269933830    0.8520053847    2.3468904177
O        1.5514733184   -0.5003881308   -1.8801609597
H        6.5041413878    1.0728323503   -1.8901851756
H        4.3485764380   -0.0744691948   -2.6009237110
H        6.8793035114    1.5221336905    0.5426206029
H        1.7520070912   -1.9334710749    0.7949378176
H        2.6625475490   -2.9566298224   -0.3452711036
H        0.9531434525   -2.5790098386   -0.6585224418
H        3.1428696714   -0.1355675839    1.4713381792
17   

C        5.7522483145    0.8922189161   -1.1352176304
C        4.5300369650    0.2111095919   -1.5620081477
C        5.9808321726    1.0607362870    0.2081123727
C        3.5998078717   -0.2308578743   -0.6592301219
C        5.0117736286    0.5645694653    1.1651439894
C        2.4004493313   -1.0193468075   -1.1057766625
C        1.8642646464   -2.1567946099   -0.2480467498
N        3.8709519892   -0.0650652315    0.7223851970
O        5.1850498355    0.6740806348    2.3657774050
O        1.7582558882   -0.6634972888   -2.0813397249
H        6.4662885864    1.2538384255   -1.8681560661
H        4.3548380014    0.0546261643   -2.6222558832
H        6.8673439329    1.5527922533    0.5836624194
H        1.4180405198   -1.7585954146    0.6663800743
H        2.6791770948   -2.8382972581    0.0108454708
H        1.1040743402   -2.7136211022   -0.8034169159
H        3.2407385158   -0.3591099436    1.4583055638
17   

C        5.7388565115    0.9568458982   -1.1176602379
C        4.5306667650    0.2565790621   -1.5532354355
C        6.0049270617    1.0442304418    0.2264701804
C        3.6525239341   -0.2904090779   -0.6549309504
C        5.0887194369    0.4446116105    1.1761547306
C        2.4539807443   -1.0677588776   -1.1180386673
C        1.8004855453   -2.1018765944   -0.2114647919
N        3.9606942942   -0.2028199965    0.7264078020
O        5.2935483424    0.4857814468    2.3761101537
O        1.9254363648   -0.7978429940   -2.1860423422
H        6.4128738900    1.3969560761   -1.8455472922
H        4.3259649777    0.1719684448   -2.6165006021
H        6.8827936929    1.5473592602    0.6075997668
H        1.3527136086   -1.6099948635    0.6555354705
H        2.5492167846   -2.8247352756    0.1236505000
H        1.0189131535   -2.6351235261   -0.7603294554
H        3.3723984920   -0.5784583474    1.4597905877
17   

C        5.7067602407    1.0081258843   -1.1239322953
C        4.5285726370    0.2636271177   -1.5683312255
C        5.9966863190    1.0499359838    0.2173453009
C        3.7054487251   -0.3787117590   -0.6805186374
C        5.1342518261    0.3600142129    1.1556992824
C        2.5197847827   -1.1718559100   -1.1493680730
C        1.7700935211   -2.0938133057   -0.1968874992
N        4.0334610012   -0.3276589993    0.6983744946
O        5.3584640013    0.3637688342    2.3528852473
O        2.1089247694   -1.0374983989   -2.2928067971
H        6.3400598281    1.5167448184   -1.8436946171
H        4.3054328443    0.2233276125   -2.6305161256
H        6.8541366163    1.5830140850    0.6041912017
H        1.3201856647   -1.5103871203    0.6103984158
H        2.4586245791   -2.8319893443    0.2228898817
H        0.9775377253   -2.6198746741   -0.7369207645
H        3.4866312441   -0.7728706885    1.4248331892
17   

C        5.6717646093    1.0639868202   -1.1340210408
C        4.5259456542    0.2763829557   -1.5887287339
C        5.9832866704    1.0694225507    0.2030782326
C        3.7611081864   -0.4517666124   -0.7150190569
C        5.1749327431    0.2996602123    1.1273708669
C        2.5868448279   -1.2571693550   -1.1917704492
C        1.7421275260   -2.0633439118   -0.2139985340
N        4.1046674731   -0.4287647774    0.6608391139
O        5.4152193339    0.2758495836    2.3212040340
O        2.2979993940   -1.2712463204   -2.3796747577
H        6.2640297761    1.6334473716   -1.8430737922
H        4.2820115386    0.2740339500   -2.6470954118
H        6.8181035814    1.6324854663    0.5968809682
H        1.2978105544   -1.3974644700    0.5303581589
H        2.3637064068   -2.8108475481    0.2857629461
H        0.9393078183   -2.5756262968   -0.7521274594
H        3.5985471380   -0.9344673699    1.3771265580
17   

C        5.6032439719    1.1133734521   -1.1463752180
C        4.4926711631    0.2748161843   -1.5973546048
C        5.9437641428    1.1025981442    0.1836736038
C        3.7972412227   -0.5256767852   -0.7290774165
C        5.1999604866    0.2661136982    1.1043629421
C        2.6353004122   -1.3529533395   -1.1978756225
C        1.7039737594   -2.0278623585   -0.1997276632
N        4.1628088135   -0.5106984320    0.6410702552
O        5.4626583715    0.2322517535    2.2932234311
O        2.4609359928   -1.5396935368   -2.3933267147
H        6.1464565724    1.7334593580   -1.8522292440
H        4.2182236562    0.2912810435   -2.6481042869
H        6.7541435594    1.7020658394    0.5747775624
H        1.2736632505   -1.2789737018    0.4704881103
H        2.2562924833   -2.7688179197    0.3837504119
H        0.8915973109   -2.5310382456   -0.7320563904
H        3.7051727387   -1.0663094352    1.3530019109
17   

C        6.2646324563   -0.1042235410   -0.0290562829
C        5.2016605974   -1.0996667743   -0.1668776868
C        5.9218058984    1.2224927806    0.0569987378
C        3.8791654531   -0.7420714901   -0.1881625351
C        4.5240708020    1.6032857353    0.0099161388
C        2.8031174041   -1.7669852026   -0.4035259428
C        1.4439518573   -1.3619585919   -0.9576062684
N        3.5532291613    0.6360901286   -0.1161151813
O        4.1763999536    2.7692041552    0.0673660253
O        2.9716906851   -2.9186865758   -0.0316716827
H        7.3052980449   -0.4106088050    0.0019434612
H        5.4707810278   -2.1484267110   -0.2521726381
H        6.6633447146    2.0028977412    0.1576785441
H        1.5749784266   -0.8266931063   -1.9019315469
H        0.9240844546   -0.7201627996   -0.2420864614
H        0.8374786806   -2.2536275866   -1.1408497201
H        2.6055460075    0.9922103922   -0.1270404705
17   

C        6.2553280543   -0.1198954667   -0.0979052197
C        5.1842672215   -1.1105400017   -0.2042676826
C        5.9202016605    1.2013262922    0.0671633943
C        3.8645757574   -0.7562803635   -0.1116008681
C        4.5227519471    1.5807219111    0.1331815377
C        2.7738708443   -1.7682767120   -0.3256359304
C        1.4847954729   -1.3727880852   -1.0319322382
N        3.5450878348    0.6170891555    0.0355409071
O        4.1810213778    2.7431581354    0.2576815358
O        2.8478610604   -2.8717291498    0.1917436240
H        7.2954630026   -0.4247911118   -0.1524836941
H        5.4427600199   -2.1540499705   -0.3578101550
H        6.6673378458    1.9786795249    0.1482154174
H        1.7203755605   -0.8775123933   -1.9778483450
H        0.9041393006   -0.6956257003   -0.4009451444
H        0.8881420455   -2.2651176416   -1.2420123477
H        2.5989200751    0.9690144278    0.1138053830
17   

C        6.2272844920   -0.1397055922   -0.1880396887
C        5.1392162191   -1.1153863634   -0.2540694984
C        5.9213879702    1.1763666576    0.0554780393
C        3.8350699803   -0.7546262144   -0.0481453543
C        4.5375591687    1.5645827147    0.2427815745
C        2.7100581202   -1.7427273109   -0.2256238851
C        1.4988304423   -1.3739919942   -1.0708122120
N        3.5444004701    0.6141757017    0.1780633066
O        4.2202293476    2.7237660418    0.4406386540
O        2.6670714108   -2.7597157670    0.4460183003
H        7.2568265589   -0.4509588695   -0.3328895595
H        5.3726998157   -2.1537732538   -0.4685823860
H        6.6814919869    1.9432565946    0.1119473202
H        1.8118541219   -1.2187404465   -2.1067906461
H        1.0360563671   -0.4592363034   -0.6935344035
H        0.7633819858   -2.1830673558   -1.0420978359
H        2.6123749065    0.9668909899    0.3578336864
17   

C        6.1992284799   -0.1559825737   -0.3372012133
C        5.0916882610   -1.1108512265   -0.3862459378
C        5.9370152142    1.1430964845    0.0208400380
C        3.8129150645   -0.7479914620   -0.0658629252
C        4.5790718542    1.5339016736    0.3423078065
C        2.6433006371   -1.7024542371   -0.1830686826
C        1.5192570730   -1.4027093969   -1.1643377324
N        3.5669469276    0.6034611754    0.2828716955
O        4.3002396604    2.6786290133    0.6512511954
O        2.4842602734   -2.5917580194    0.6338754262
H        7.2093638801   -0.4692115365   -0.5807419474
H        5.2924779018   -2.1364197616   -0.6795208912
H        6.7130205635    1.8941468370    0.0737988993
H        1.7918720106   -1.7841519313   -2.1518837410
H        1.3501992071   -0.3255545626   -1.2352292938
H        0.5959225144   -1.8886460259   -0.8370133823
H        2.6609075879    0.9457858974    0.5794848128
17   

C        6.1504561133   -0.1305794013   -0.4545318992
C        5.0176085293   -1.0558283334   -0.4961741938
C        5.9448318555    1.1465294179    0.0052424742
C        3.7670383238   -0.6799469887   -0.0927472970
C        4.6202940250    1.5441470931    0.4387955963
C        2.5672923993   -1.6092903455   -0.1280453662
C        1.6352216268   -1.5977699264   -1.3288976895
N        3.5813757708    0.6440393979    0.3744875903
O        4.3951385584    2.6679795670    0.8511506117
O        2.3018030336   -2.3047498404    0.8352369586
H        7.1360946941   -0.4490026268   -0.7784078877
H        5.1790252462   -2.0691556296   -0.8492837718
H        6.7424107049    1.8743553973    0.0617194912
H        2.1056175232   -2.1282509617   -2.1607992267
H        1.4315245365   -0.5674428624   -1.6317666217
H        0.6918892330   -2.0900051925   -1.0763759448
H        2.7072676268    0.9746159772    0.7660671472
17   

C        6.0831807746   -0.0515949337   -0.5977070284
C        4.9153904775   -0.9320337403   -0.6467508212
C        5.9518615757    1.1906262932   -0.0283309651
C        3.6942522182   -0.5328527904   -0.1762688428
C        4.6694947603    1.5967812133    0.5113319287
C        2.4901168763   -1.4522332948   -0.1241555236
C        1.9160491500   -2.0330518740   -1.4077011767
N        3.5919769247    0.7453348647    0.4239014901
O        4.5180313746    2.6826091674    1.0423351801
O        2.1296882091   -1.9088465759    0.9467050932
H        7.0387123295   -0.3778216787   -0.9955604429
H        5.0319130476   -1.9305915023   -1.0545924446
H        6.7797634035    1.8822577916    0.0441271197
H        2.7170331393   -2.2442366381   -2.1202195130
H        1.2247783561   -1.3128661018   -1.8531395330
H        1.3764907710   -2.9592816552   -1.1915119154
H        2.7590841126    1.0552741887    0.9113461446
17   

C        6.0148596679   -0.0062254173   -0.7115337193
C        4.8362524857   -0.8712264875   -0.7783134840
C        5.9152565211    1.2007260779   -0.0653638313
C        3.6299478674   -0.4837633315   -0.2568374593
C        4.6540318479    1.5879247102    0.5341198148
C        2.4285075552   -1.3949924198   -0.1932650926
C        1.9894042224   -2.1960966926   -1.4118010514
N        3.5623541605    0.7582263709    0.4195064456
O        4.5358667733    2.6361147268    1.1434963574
O        1.9368128236   -1.6581980057    0.8929816472
H        6.9555368075   -0.3182989111   -1.1536917648
H        4.9421881417   -1.8482782305   -1.2365769967
H        6.7539789479    1.8768237044    0.0265351306
H        2.8532235239   -2.5275583279   -1.9916742978
H        1.3559195105   -1.5699764228   -2.0455784838
H        1.4183967932   -3.0734113780   -1.0952900239
H        2.7488654119    1.0354852045    0.9577081705
17   

C        5.9795701495    0.0335276455   -0.7635399630
C        4.7850138696   -0.8075839255   -0.8528403173
C        5.9170699149    1.2002465183   -0.0435800532
C        3.5972790777   -0.4367718741   -0.2765392429
C        4.6777949751    1.5703900823    0.6089788663
C        2.3735758340   -1.3102375635   -0.2338681400
C        2.0197295935   -2.2359306881   -1.3903519566
N        3.5701819017    0.7660332822    0.4706134199
O        4.5938388680    2.5805232737    1.2847240152
O        1.7457838108   -1.4009038984    0.8119685009
H        6.9034974810   -0.2650479073   -1.2482942705
H        4.8666473458   -1.7513756868   -1.3796630061
H        6.7691413996    1.8565016455    0.0673792102
H        2.8798744779   -2.8459487003   -1.6737309261
H        1.6997803465   -1.6394926712   -2.2488401467
H        1.2016928445   -2.9000991774   -1.0971536349
H        2.7690154342    1.0218500735    1.0380882664
17   

C        5.9502682916    0.0838724835   -0.8286863386
C        4.7376686839   -0.7309315204   -0.9200157073
C        5.9388435294    1.2040505002   -0.0358309682
C        3.5838576038   -0.3849710869   -0.2639081742
C        4.7341205053    1.5530420408    0.6890541981
C        2.3375478922   -1.2189739994   -0.2410791133
C        2.0390602909   -2.2291956506   -1.3398728876
N        3.6094311852    0.7726165349    0.5518148124
O        4.6953424009    2.5239321421    1.4238660416
O        1.6022919691   -1.1609443702    0.7366537706
H        6.8472609650   -0.1968073356   -1.3712735452
H        4.7742014363   -1.6339725363   -1.5190750768
H        6.8060099011    1.8396982123    0.0781308486
H        2.7903355237   -3.0226651711   -1.3332319659
H        2.0449550836   -1.7287363040   -2.3117805503
H        1.0530391544   -2.6737841645   -1.1774079619
H        2.8240970596    1.0162109059    1.1468645005
17   

C        5.9213977528    0.1137336018   -0.8343032009
C        4.7104396486   -0.6967258578   -0.9751631210
C        5.9203718515    1.1604180478    0.0533136356
C        3.5717258454   -0.4260322904   -0.2598670717
C        4.7276711631    1.4388054224    0.8266529424
C        2.3128572554   -1.2359473146   -0.3117005409
C        2.0916834651   -2.2971040269   -1.3804997763
N        3.6075672024    0.6601335845    0.6487753894
O        4.6952641115    2.3488038024    1.6359433435
O        1.4661278265   -1.0745732063    0.5597979753
H        6.8083001231   -0.1112894983   -1.4178708788
H        4.7357776253   -1.5331508472   -1.6647211169
H        6.7858890440    1.7905697808    0.2043309063
H        2.8260182972   -3.0985136895   -1.2664865392
H        2.1903833710   -1.8490506616   -2.3727014117
H        1.0877154795   -2.7197948620   -1.2820427166
H        2.8155632382    0.8692102313    1.2485725771
17   

C        5.9368578272    0.0968570205   -0.8680473563
C        4.7048948049   -0.6775506742   -1.0288789046
C        5.9794922247    1.0878035264    0.0804131985
C        3.5948888381   -0.4396215293   -0.2587513919
C        4.8110673644    1.3443254714    0.8970162063
C        2.2999404417   -1.1843748567   -0.3600517874
C        2.1025308280   -2.3101231894   -1.3656440086
N        3.6753594716    0.5908653356    0.7100472346
O        4.8120257040    2.2155216199    1.7485603115
O        1.3782794544   -0.8762857794    0.3874910119
H        6.8036266352   -0.1080674444   -1.4881275605
H        4.6894799775   -1.4564335839   -1.7830818387
H        6.8606223903    1.6923883854    0.2450444070
H        2.8228710082   -3.1094857020   -1.1735855100
H        2.2407322295   -1.9291346561   -2.3807803103
H        1.0909881092   -2.7161813592   -1.2749203455
H        2.8848858512    0.8109928313    1.3080686321
