24   

C       -0.6567181273    1.1778774406   -0.0015857989
C        0.5635715259    0.6605188954    0.3739303750
C        1.5239331323    1.4391078584    1.2314323659
C       -1.6140477250    0.4248728792   -0.8747475193
C       -0.1060741481   -1.5196491543   -0.6486652056
C        3.6269981789    1.7058372220    2.4936609856
C        3.6176823177    0.3536110934    0.4073711184
N        0.8921958352   -0.6570094359   -0.0218197457
N       -0.8953114697   -0.6729888940   -1.5365212778
N        2.8566221193    1.0454682022    1.4437087153
O        1.1567470494    2.4617990752    1.8123676603
H       -0.9078998698    2.1906365827    0.2911358760
H       -2.4291993839    0.0269221168   -0.2617781041
H       -2.0406323894    1.1002751872   -1.6236402301
H        0.3876337457   -2.3067999615   -1.2269888714
H       -0.7460527342   -1.9786042846    0.1127127033
H        4.5607322542    1.1670180417    2.6830143895
H        3.0578322772    1.7229944310    3.4289466568
H        3.8632851795    2.7340196370    2.2009018000
H        4.6146693254    0.7959548983    0.3129918653
H        3.1408414952    0.4604367794   -0.5725678474
H        3.7259125797   -0.7073676412    0.6504215337
H        1.7542031983   -1.0751852252    0.3079879865
H       -1.5060479554   -1.2197518948   -2.1339457203
24   

C       -0.6415215866    1.1475064925   -0.0029518580
C        0.5506660577    0.6066449144    0.4227074343
C        1.4836639374    1.3522963927    1.3368038258
C       -1.5810910851    0.4044734170   -0.9038091051
C       -0.1528743961   -1.5824002135   -0.5532467331
C        3.6230730898    1.6217394298    2.5383527816
C        3.5737834722    0.3984714751    0.3690815244
N        0.8437611481   -0.7366878973    0.0991048189
N       -0.8694405070   -0.7348783794   -1.5007930527
N        2.8365557666    1.0023753101    1.4761702148
O        1.0593535571    2.2477287168    2.0704236607
H       -0.8781727488    2.1688793793    0.2709944782
H       -2.4394282211    0.0515392577   -0.3232085044
H       -1.9450770271    1.0735424820   -1.6905175052
H        0.3403200785   -2.4013624392   -1.0860411520
H       -0.8442998811   -1.9981913629    0.1876418811
H        4.5980104952    1.1329135369    2.6308853200
H        3.1080849400    1.5240893810    3.4995852647
H        3.7793873008    2.6838054250    2.3229164372
H        4.5326443467    0.9085921579    0.2318660304
H        3.0308476262    0.5031823333   -0.5761197921
H        3.7620433849   -0.6613030933    0.5634574761
H        1.6700425836   -1.1732052781    0.4926202336
H       -1.4692149768   -1.2779568433   -2.1125402136
24   

C       -0.6212028163    1.1310765170   -0.0039249120
C        0.5351287807    0.5561018168    0.4694374941
C        1.4516438287    1.2601362917    1.4344762790
C       -1.5487225714    0.4060434035   -0.9318356352
C       -0.2194516401   -1.6287093438   -0.4746561279
C        3.6329161408    1.5349468720    2.5606531479
C        3.5222064351    0.4427780722    0.3194866692
N        0.7783466581   -0.8100112868    0.2099143187
N       -0.8565256080   -0.7735478516   -1.4718822074
N        2.8214345908    0.9626144566    1.4915642836
O        0.9954407656    2.0015302817    2.3081198512
H       -0.8328826832    2.1623912737    0.2517706101
H       -2.4463320781    0.1002813592   -0.3849673940
H       -1.8484106471    1.0712103428   -1.7484466673
H        0.2652983693   -2.4770150626   -0.9678270972
H       -0.9615509288   -2.0018918324    0.2393646441
H        4.6309773730    1.0857425707    2.5687484111
H        3.1717129210    1.3430365453    3.5347976677
H        3.7344010478    2.6159799742    2.4195112772
H        4.4395349848    1.0141059770    0.1449079419
H        2.9175206957    0.5425129421   -0.5879471895
H        3.7812799527   -0.6102322503    0.4621097326
H        1.5661542177   -1.2682987980    0.6554251746
H       -1.4483431089   -1.3059500190   -2.1005555246
24   

C       -0.5156839956    1.1296740461    0.0553770195
C        0.5973904712    0.5102105026    0.5713560688
C        1.5252271129    1.1715821667    1.5594084122
C       -1.4488806156    0.4250556374   -0.8828894813
C       -0.2378868351   -1.6606710516   -0.3293241289
C        3.7712138079    1.4814145505    2.5475075687
C        3.5389694388    0.5089686224    0.2567142500
N        0.7736027556   -0.8744890383    0.3732151711
N       -0.7979644759   -0.8010622726   -1.3691847826
N        2.9077502447    0.9498342887    1.4987743993
O        1.0793556222    1.7413016975    2.5588715580
H       -0.6837679347    2.1755222635    0.2814396958
H       -2.3771409989    0.1779199331   -0.3581043361
H       -1.6893195946    1.0809491934   -1.7261895860
H        0.2224004044   -2.5429182695   -0.7849827909
H       -1.0221465417   -1.9805655893    0.3651816704
H        4.7698417255    1.0382306070    2.4827961986
H        3.3659311397    1.2463317195    3.5368712672
H        3.8604675866    2.5679269605    2.4463054437
H        4.4098700405    1.1338875335    0.0346142305
H        2.8617198556    0.6029344593   -0.5984296800
H        3.8599748952   -0.5333502597    0.3396254068
H        1.5230123845   -1.3568206082    0.8585712326
H       -1.3934696172   -1.3207897539   -2.0049700235
24   

C       -0.4771309227    1.1554533917   -0.0314428493
C        0.5423535814    0.4744974475    0.5876943028
C        1.4425935155    1.0764774920    1.6407896329
C       -1.3713117468    0.4871396935   -1.0324156399
C       -0.3317814516   -1.6575412738   -0.3558289303
C        3.7052173789    1.4882402514    2.5676837264
C        3.4419951632    0.6731034246    0.2165520855
N        0.6595581958   -0.9197631946    0.4234904522
N       -0.7546296399   -0.7825798350   -1.4478982599
N        2.8340769132    0.9995063322    1.5043567556
O        0.9821644344    1.4307930642    2.7300846279
H       -0.5954545478    2.2144488039    0.1610286065
H       -2.3508834174    0.3013101341   -0.5805618475
H       -1.5064818144    1.1399316999   -1.9011490774
H        0.1148961092   -2.5699559458   -0.7630783887
H       -1.1881290043   -1.9245527800    0.2727549978
H        4.6881937332    1.0117505140    2.5020759082
H        3.2924778552    1.2547827439    3.5542562875
H        3.8303146279    2.5723994218    2.4818580286
H        4.2763472258    1.3512173144    0.0110681376
H        2.7334902971    0.7879997099   -0.6100227333
H        3.8119377419   -0.3563548555    0.2207848196
H        1.3316702555   -1.4352758791    0.9828289447
H       -1.3251291940   -1.2785245375   -2.1243419521
24   

C       -0.1845119439    1.2090646183   -0.2566473396
C        0.5522816298    0.4229041400    0.5941232054
C        1.4628698054    0.9444369718    1.6808367798
C       -1.0263889026    0.6029308113   -1.3387446114
C       -0.4076759637   -1.6222386025   -0.4275102453
C        3.6780713413    1.7742507555    2.4423184593
C        3.3370630940    1.0923402498    0.0542693965
N        0.5570680834   -0.9771255633    0.4585257479
N       -0.5496168574   -0.7640521756   -1.6040258220
N        2.7941882982    1.2667618600    1.3982352331
O        1.0346027847    1.0868141815    2.8307007552
H       -0.1265545477    2.2864802663   -0.1679946343
H       -2.0718844440    0.5790328769   -1.0135614530
H       -0.9592758767    1.2102415403   -2.2471510604
H       -0.0395661172   -2.6079957732   -0.7286249204
H       -1.3711414973   -1.7380648179    0.0807965955
H        4.2611887601    0.9547000881    2.8732864535
H        3.1133890223    2.2642185778    3.2419483440
H        4.3625960739    2.5202812588    2.0266702640
H        3.2099317063    2.0101169412   -0.5279892827
H        2.8516220736    0.2664885022   -0.4751159695
H        4.4033298569    0.8510064082    0.1064574768
H        1.0613183762   -1.5438701675    1.1337160599
H       -1.0939487908   -1.2193764721   -2.3289486771
24   

C        0.1015302787    1.1751747662   -0.3803134147
C        0.6058837515    0.3650198598    0.6095581290
C        1.5434420256    0.8131615410    1.7034987796
C       -0.7421353431    0.6189110537   -1.4871508785
C       -0.5122505146   -1.6009813462   -0.4018005140
C        3.5648574847    2.0165738356    2.4738836668
C        3.2831368527    1.4493101422    0.0504418617
N        0.4682066654   -1.0294209141    0.5154659498
N       -0.4502863062   -0.8151049664   -1.6340041723
N        2.7296314278    1.4894172726    1.4009664870
O        1.1720612201    0.7613147259    2.8814887559
H        0.3266416248    2.2339514049   -0.3677025015
H       -1.7997188736    0.7611166879   -1.2393960882
H       -0.5311382072    1.1486250392   -2.4214692693
H       -0.2643152480   -2.6458272337   -0.6132592831
H       -1.5151388616   -1.5512031682    0.0363408575
H        4.1677294753    1.2137678261    2.9102764598
H        2.9510272549    2.4691511955    3.2592496187
H        4.2333288668    2.7931015807    2.0893417862
H        3.0469425680    2.3727850826   -0.4863805858
H        2.8941113058    0.5978737424   -0.5179178452
H        4.3703848457    1.3288449728    0.0908870730
H        0.8275005151   -1.6078541158    1.2698525273
H       -1.0074356161   -1.2397520140   -2.3677235543
24   

C        0.2960137538    1.0438252054   -0.4162072233
C        0.7567213743    0.2566022718    0.6147046717
C        1.7321722618    0.6823427529    1.6804015370
C       -0.6203183443    0.4943559526   -1.4677780036
C       -0.5641526099   -1.6588387227   -0.2344700962
C        3.6342669137    2.0432646079    2.4813312677
C        3.3534450310    1.5976921666    0.0367980974
N        0.4925131938   -1.1199295279    0.6146648935
N       -0.4690147859   -0.9672295715   -1.5197618940
N        2.8194191679    1.5153387550    1.3930522872
O        1.4479138240    0.4733786721    2.8664909325
H        0.5916239706    2.0833326429   -0.4718514704
H       -1.6539870805    0.7529757023   -1.2132758680
H       -0.3826948792    0.9368003908   -2.4402890697
H       -0.4190587242   -2.7341273921   -0.3779232581
H       -1.5439627201   -1.4861160997    0.2241908172
H        4.2944143348    1.2616681654    2.8709966763
H        3.0011398035    2.4142674613    3.2937252630
H        4.2455027167    2.8801038698    2.1293160314
H        3.0376239999    2.5285363945   -0.4433582908
H        3.0246428559    0.7501440066   -0.5738767219
H        4.4473970162    1.5625574940    0.0582877739
H        0.7998574953   -1.6621936693    1.4184396635
H       -1.0844070161   -1.3868578113   -2.2083555686
24   

C        0.3749497225    0.9511465812   -0.5061092062
C        0.7942941743    0.1715959400    0.5497278587
C        1.7845463329    0.5591953379    1.6139188715
C       -0.5998782425    0.4327108140   -1.5210935570
C       -0.7257645098   -1.6469798936   -0.1709436260
C        3.6046500404    1.9662248669    2.5134544004
C        3.3465963816    1.6927144127    0.0452213186
N        0.3964612129   -1.1677687956    0.6274483651
N       -0.5925190504   -1.0370896294   -1.4934628547
N        2.8139055323    1.4815324652    1.3875673675
O        1.5726753823    0.1933326314    2.7781529287
H        0.7293497303    1.9677618451   -0.6074104877
H       -1.6012728265    0.8042714267   -1.2778273586
H       -0.3302000726    0.7950533929   -2.5180953630
H       -0.6872580768   -2.7373771416   -0.2570117124
H       -1.6739001218   -1.3555334971    0.2941292532
H        4.3023555294    1.1909813809    2.8461947475
H        2.9544404575    2.2447035953    3.3490986058
H        4.1738057110    2.8558389281    2.2261011793
H        2.9762213024    2.6342185596   -0.3711054497
H        3.0748383238    0.8695586839   -0.6239686321
H        4.4405322204    1.7255974376    0.0731714350
H        0.6634093187   -1.6813711385    1.4650955653
H       -1.2573839178   -1.4326977041   -2.1494187744
24   

C        0.4613142773    0.8500393975   -0.5483963738
C        0.8691989193    0.0916738350    0.5288933241
C        1.8772197939    0.4674955574    1.5808858598
C       -0.5725093073    0.3474406109   -1.5127433957
C       -0.8192480107   -1.6332032328   -0.0365521990
C        3.6430372813    1.8985987680    2.5423343963
C        3.3609286584    1.7793109746    0.0683797050
N        0.3620997606   -1.1978726697    0.6982819981
N       -0.6805482022   -1.1137423805   -1.3961847878
N        2.8539911418    1.4558221636    1.3976508997
O        1.7663912967   -0.0343766185    2.7085851454
H        0.8543201356    1.8437918379   -0.7067998303
H       -1.5364902202    0.8112819207   -1.2771836581
H       -0.2967859015    0.6259873824   -2.5347416263
H       -0.8676947114   -2.7264031354   -0.0570695646
H       -1.7263488300   -1.2405686464    0.4358236088
H        4.3722331586    1.1302486642    2.8188205781
H        2.9936329980    2.1004452300    3.4004233562
H        4.1759789287    2.8247840451    2.3053697061
H        2.9308508546    2.7197995592   -0.2888266209
H        3.1371372907    0.9800663168   -0.6458619836
H        4.4508675018    1.8796267787    0.0933543683
H        0.6309331891   -1.6835597037    1.5530630861
H       -1.3921029742   -1.4940782228   -2.0108069154
24   

C        0.5112328834    0.7715154839   -0.6222201896
C        0.9112457098    0.0260376992    0.4688982998
C        1.9394109239    0.3808451097    1.5114207950
C       -0.5765412920    0.2962081033   -1.5412020588
C       -0.9305907516   -1.5830081305    0.0400051976
C        3.6720252362    1.8024882183    2.5417402017
C        3.3320841834    1.8787949234    0.0769721204
N        0.3015050358   -1.2019926460    0.7185738881
N       -0.7917190786   -1.1443883206   -1.3471187603
N        2.8713370055    1.4212824377    1.3823876189
O        1.9386489514   -0.2541581726    2.5762169747
H        0.9415268440    1.7379729245   -0.8341820068
H       -1.4985770021    0.8431437690   -1.3166848226
H       -0.3008833457    0.4988856621   -2.5809839006
H       -1.0611593107   -2.6689769401    0.0783449613
H       -1.7912149480   -1.0985704568    0.5140432550
H        4.4442809086    1.0503189457    2.7324031767
H        3.0385235933    1.8970318652    3.4298344390
H        4.1528092347    2.7714870009    2.3746387242
H        2.8191996542    2.8015800514   -0.2105675784
H        3.1723209507    1.1113820736   -0.6875062726
H        4.4092388418    2.0732605186    0.1023733674
H        0.5916020061   -1.6873288477    1.5675375893
H       -1.5449154748   -1.5007602972   -1.9253426383
24   

C        0.5703171733    0.6898440940   -0.6846422894
C        0.9538934336   -0.0206939428    0.4376296436
C        2.0205366897    0.3049394845    1.4564972443
C       -0.5780933307    0.2428934873   -1.5432010810
C       -1.0386507356   -1.4886490185    0.1683532541
C        3.7779916518    1.6672535693    2.5257597233
C        3.2796532835    2.0099424438    0.1128649040
N        0.2337707767   -1.1556070116    0.7952473967
N       -0.8997431216   -1.1594469742   -1.2477781521
N        2.9291234818    1.3726021233    1.3742582648
O        2.1246653086   -0.4397804835    2.4431407386
H        1.0591520720    1.5997992647   -0.9895982256
H       -1.4479007902    0.8754741652   -1.3365575652
H       -0.3163175648    0.3525984582   -2.6004809240
H       -1.2486884138   -2.5562514454    0.2865158760
H       -1.8494911241   -0.9085996472    0.6222853048
H        4.5890652585    0.9353989708    2.5955895629
H        3.1920094057    1.6399417040    3.4504780505
H        4.2088426558    2.6698506249    2.4410251262
H        2.6240605282    2.8641322861   -0.0822517903
H        3.2255369196    1.2922515996   -0.7121410866
H        4.3129753953    2.3705713201    0.1427204176
H        0.5544038557   -1.6542987016    1.6259262446
H       -1.6913719100   -1.4942734592   -1.7861452635
24   

C        0.7876437446    0.6489943313   -0.6498915500
C        0.9097584525    0.2860574384    0.6754731253
C        2.1048905462    0.4530629003    1.5801136107
C       -0.4243904818    0.2689559530   -1.4454654170
C       -1.3412263666   -0.7907340071    0.5968539453
C        4.3841423854    1.2093817851    2.1458303347
C        3.0629980417    2.4633802227    0.4460869870
N       -0.1279671115   -0.3936210564    1.3070508014
N       -1.0160482487   -0.9223508215   -0.8228286473
N        3.1937224208    1.2932536070    1.3055795595
O        2.1582302384   -0.2372509251    2.6070543357
H        1.6154005984    1.0857823753   -1.1874651912
H       -1.1435840983    1.0940132041   -1.4508674076
H       -0.1333999267    0.0469804038   -2.4775770029
H       -1.7001795369   -1.7503253084    0.9823878597
H       -2.1228119079   -0.0371601107    0.7387634356
H        5.2306989236    1.7078315542    1.6632209850
H        4.6658061328    0.1635557962    2.3070575344
H        4.1977323979    1.6825569668    3.1152140822
H        2.0210213201    2.7943876779    0.3886524581
H        3.4389751068    2.2468492210   -0.5584223036
H        3.6346141351    3.3012148554    0.8584353675
H        0.1273829025   -0.8617695837    2.1773691194
H       -1.7985398863   -1.2915889996   -1.3522132938
24   

C        0.8419027547    0.5672713931   -0.6957646719
C        0.9511232026    0.2225589343    0.6341303995
C        2.1611559364    0.3669378195    1.5172742123
C       -0.4004056348    0.2564227026   -1.4742629642
C       -1.3940457662   -0.6280327769    0.6180676088
C        4.4290753537    1.1853975475    2.0455981287
C        2.9740765234    2.4898365463    0.4947145400
N       -0.1422757083   -0.3260517206    1.3089877850
N       -1.0945252356   -0.8470946684   -0.7967518520
N        3.2017125328    1.2699576064    1.2612890735
O        2.3074322175   -0.4429251178    2.4420687848
H        1.7018106692    0.9343781281   -1.2376971379
H       -1.0441968548    1.1401575054   -1.5219120431
H       -0.1314415164   -0.0402495786   -2.4935505150
H       -1.8435040202   -1.5314573817    1.0424125137
H       -2.0965763578    0.2038797123    0.7329663357
H        5.2281499930    1.7630869403    1.5704898600
H        4.7686451016    0.1468002061    2.1155046238
H        4.2607087596    1.5750450894    3.0546861375
H        1.9096185296    2.7440477908    0.4632295060
H        3.3534919133    2.3791155108   -0.5255171469
H        3.4839369837    3.3347101240    0.9689786504
H        0.0883268646   -0.8318052844    2.1641228003
H       -1.9100911582   -1.1679790864   -1.3074402419
24   

C        0.9306971335    0.4615167704   -0.7525350449
C        1.0312674614    0.1366857259    0.5817427391
C        2.2574305897    0.2582687243    1.4441232181
C       -0.3397834943    0.2255414198   -1.5115748378
C       -1.3871161881   -0.4689910179    0.6281473197
C        4.4972483996    1.1597278645    1.9653984099
C        2.9221060148    2.4807372397    0.5461198165
N       -0.1018706154   -0.2755722777    1.2970648927
N       -1.1293342312   -0.7743927218   -0.7789535067
N        3.2418264585    1.2299663217    1.2259638691
O        2.4973590552   -0.6518936649    2.2471732873
H        1.8133435603    0.7618525967   -1.3010035377
H       -0.9003465012    1.1609154475   -1.6033170994
H       -0.1050526524   -0.1452078775   -2.5149780445
H       -1.9246049029   -1.3022848005    1.0917864240
H       -1.9965096333    0.4364790292    0.7151687616
H        5.2509361585    1.8037376208    1.5016242676
H        4.8889333309    0.1373452103    1.9631706201
H        4.3440863402    1.4815028838    3.0005270748
H        1.8428575382    2.6650985683    0.5411759639
H        3.2901820659    2.4624351158   -0.4839782279
H        3.3820127027    3.3242927150    1.0710192041
H        0.0893960823   -0.8042263290    2.1468577477
H       -1.9774557487   -1.0382881314   -1.2688684097
24   

C        0.9938722839    0.3420771563   -0.8374071549
C        1.0902957799    0.0597069192    0.5055315142
C        2.3387490393    0.1581812290    1.3406767982
C       -0.3029794329    0.1798907263   -1.5707857439
C       -1.3758193386   -0.2863872128    0.6195038609
C        4.5281492461    1.1654956261    1.8886194867
C        2.8359721248    2.4734353345    0.5911699495
N       -0.0654517282   -0.2028933676    1.2626962066
N       -1.1765518805   -0.6916639275   -0.7717043219
N        3.2523181287    1.2062686029    1.1831040910
O        2.6758889284   -0.8240829976    2.0115199263
H        1.8917117854    0.5630789308   -1.3999855843
H       -0.7730655201    1.1569693251   -1.7186581321
H       -0.1170112337   -0.2735908764   -2.5501635153
H       -1.9937517124   -1.0299368927    1.1328457661
H       -1.8805373720    0.6841897394    0.6649078442
H        5.2277804115    1.8870020471    1.4553504037
H        4.9832316572    0.1730879200    1.8076350041
H        4.3813384090    1.4059393400    2.9465409729
H        1.7464523711    2.5809969285    0.6046032613
H        3.1905194017    2.5482851963   -0.4410390501
H        3.2410241999    3.3109741937    1.1682192737
H        0.0796653150   -0.7274082364    2.1229139412
H       -2.0549880125   -0.8959829054   -1.2360711803
24   

C        1.0920668097    0.1748966002   -0.9161245239
C        1.2061771978   -0.0042587318    0.4414424750
C        2.4897199671    0.0856591881    1.2286670509
C       -0.2343986662    0.0547228497   -1.6031196839
C       -1.2744901397   -0.1245460298    0.6468229147
C        4.5762043975    1.2509918019    1.8675177024
C        2.7493744619    2.4964901985    0.6910604868
N        0.0569163519   -0.1177305528    1.2513642886
N       -1.1559594883   -0.6616320112   -0.7084657627
N        3.2877611413    1.2330686270    1.1846070981
O        2.9405758024   -0.9359865549    1.7568533046
H        1.9887694204    0.2943156104   -1.5108120516
H       -0.6259068760    1.0505230838   -1.8328419120
H       -0.1144569311   -0.5004933370   -2.5394626836
H       -1.9450823197   -0.7590618469    1.2349574409
H       -1.6824468649    0.8912203935    0.6206474821
H        5.2082336344    2.0503523802    1.4684735565
H        5.1079067884    0.3053477684    1.7207764045
H        4.4310558253    1.4157513744    2.9400154751
H        1.6546553502    2.4962985141    0.6937762659
H        3.1024196460    2.6898139400   -0.3261292848
H        3.0643520929    3.3193521500    1.3407293339
H        0.1758848255   -0.5983392989    2.1397411264
H       -2.0628567749   -0.8246940540   -1.1328008621
24   

C        1.1224084776   -0.2758843828   -0.9953928487
C        1.2612317145   -0.0472146695    0.3506390832
C        2.5810579282    0.0450680418    1.0808868911
C       -0.2285999425   -0.4675252929   -1.6133323158
C       -1.2121528033   -0.0641462083    0.6360803374
C        4.3773859710    1.3731244621    2.1670367048
C        2.4488374611    2.5256394379    1.0491656097
N        0.1335388426   -0.0175343011    1.2036228181
N       -1.1656090562   -0.8979695474   -0.5645458890
N        3.1081317232    1.2868725515    1.4507003228
O        3.1457933313   -0.9871518958    1.4546248944
H        2.0084429988   -0.3922505188   -1.6065724296
H       -0.5664880421    0.4747477056   -2.0570754620
H       -0.1706327511   -1.2240480664   -2.4027344839
H       -1.9055586641   -0.5024977965    1.3607091582
H       -1.5531001964    0.9470334524    0.3898956925
H        4.9599027780    2.2281820456    1.8102380489
H        4.9894376433    0.4797113809    2.0066950791
H        4.1959902957    1.4870807982    3.2400314273
H        1.8840874843    2.3997205136    0.1204353894
H        3.1882326301    3.3115995012    0.8668281640
H        1.7653677682    2.8591844884    1.8361775960
H        0.2598585077   -0.3498796356    2.1555786677
H       -2.0933871044   -1.0828322224   -0.9308651442
24   

C        1.1325832876   -0.5709555795   -0.9839056871
C        1.3283708612   -0.0800351267    0.2831999303
C        2.6825793926    0.0264942361    0.9474206146
C       -0.2418546316   -0.8092820901   -1.5285034091
C       -1.1384260314   -0.0059036347    0.6443411989
C        4.3050804903    1.2778760169    2.3548527901
C        2.3225487007    2.4473165265    1.3730730461
N        0.2256671295    0.0643175537    1.1612096890
N       -1.1620390781   -1.0248436531   -0.4026103223
N        3.0564413173    1.2065974386    1.6023911157
O        3.3604047149   -0.9866916971    1.1418565748
H        1.9941986039   -0.8412785528   -1.5815455615
H       -0.5589687613    0.0623518808   -2.1110389407
H       -0.2342449041   -1.6836520120   -2.1871964601
H       -1.8268760246   -0.2870092634    1.4474468069
H       -1.4418780189    0.9677254316    0.2449233213
H        5.1192752750    1.6062524889    1.7010372433
H        4.5691907770    0.3074285118    2.7866635221
H        4.2058316593    1.9859530139    3.1832338427
H        1.8075172439    2.4343876791    0.4070883347
H        3.0112019122    3.2979818532    1.3539264653
H        1.5853101031    2.6041664514    2.1661772090
H        0.3740344244   -0.1389639616    2.1451723023
H       -2.1071710076   -1.2194635070   -0.7155836927
24   

C        1.3064348962   -0.6640202796   -0.9494905898
C        1.5110209859   -0.0723983829    0.2735759628
C        2.8831141389    0.1112131348    0.8796423121
C       -0.0668433882   -0.9815124474   -1.4547408064
C       -0.9570030525   -0.0316746192    0.6565471332
C        4.4516486641    1.3044772259    2.3783625817
C        2.3666512257    2.4387834910    1.5910534846
N        0.4105884925    0.1039490798    1.1504319728
N       -0.9678565740   -1.1318025008   -0.3035919343
N        3.1741068342    1.2252257355    1.6784091500
O        3.6976910643   -0.8163375132    0.8703464555
H        2.1670616246   -0.9548337438   -1.5394580440
H       -0.4142440600   -0.1673759650   -2.0998599198
H       -0.0423028941   -1.9045456467   -2.0428374456
H       -1.6323095504   -0.2603097636    1.4869901066
H       -1.2829410773    0.9006008107    0.1830084528
H        5.2506472056    1.5612205873    1.6753821486
H        4.6906436993    0.3500171012    2.8582815098
H        4.4113039096    2.0675882036    3.1618387317
H        1.7745012829    2.4607267984    0.6704918499
H        3.0126137685    3.3223049005    1.5702460951
H        1.6913745325    2.5105259094    2.4486894400
H        0.5719165230   -0.0087133564    2.1464611836
H       -1.9112867166   -1.3714302829   -0.5892814592
24   

C       -0.1312916555    0.7110595839    0.6033577835
C        1.2057588728    0.4101298231    0.4873261585
C        2.2644390786    1.1339570470    1.2817625756
C       -1.1670266523    0.0956731206   -0.2856188980
C        0.6611460813   -1.1792758554   -1.3653130793
C        4.5563768167    1.3631079004    2.1745369615
C        3.6768302773   -0.8967440217    1.5785228606
N        1.6310827222   -0.4164764492   -0.5841634116
N       -0.5198002617   -0.3379248740   -1.5312301977
N        3.5114615327    0.5540040350    1.5561377989
O        2.1146075007    2.3249142941    1.5702844548
H       -0.4365592493    1.4579839026    1.3264609812
H       -1.6186340857   -0.7631467279    0.2223405622
H       -1.9539491960    0.8261201404   -0.4995085975
H        1.0812352505   -1.4230918676   -2.3461444660
H        0.4057478952   -2.1106242689   -0.8486180840
H        4.2896797045    1.5956926392    3.2106591129
H        4.6929092293    2.2981494412    1.6216969386
H        5.5115712519    0.8287848005    2.1682840817
H        4.2270484322   -1.1997360600    2.4750300675
H        4.2240682528   -1.2340256095    0.6935958365
H        2.7106848195   -1.4097951572    1.6185611345
H        2.5361492590   -0.2268076561   -1.0025894518
H       -1.1838893894   -0.7462696173   -2.1803480011
24   

C       -0.1947782197    0.6937151097    0.4937818296
C        1.1394761991    0.3586140981    0.4373379877
C        2.1743083608    1.0792362928    1.2626124855
C       -1.2174417086    0.0650362094   -0.4010049092
C        0.5980974186   -1.3419091491   -1.3181695041
C        4.4684183529    1.4253839121    2.1065429877
C        3.7287289309   -0.8641977496    1.4533932048
N        1.5679688609   -0.5630823864   -0.5527018493
N       -0.5385292049   -0.4684573818   -1.5893406922
N        3.4652999456    0.5715740479    1.4780198877
O        1.9348004482    2.2105146512    1.6951487951
H       -0.5082163971    1.4787405347    1.1718912949
H       -1.7248964800   -0.7425322794    0.1372339775
H       -1.9638189982    0.8111814681   -0.6922882657
H        1.0447898621   -1.6700021939   -2.2619816564
H        0.2843795417   -2.2238076642   -0.7494547609
H        4.2218700179    1.5849907199    3.1612582050
H        4.5149212863    2.3948383440    1.5997477014
H        5.4603622833    0.9674760043    2.0407381497
H        4.3604649071   -1.1466260003    2.3016007033
H        4.2342076871   -1.1470074091    0.5255770834
H        2.8029938013   -1.4400313628    1.5522240313
H        2.4944342400   -0.4398609634   -0.9476640563
H       -1.1920754032   -0.8926781750   -2.2390024014
24   

C       -0.1992644655    0.7379679856    0.5141152821
C        1.1217869391    0.3453356131    0.5089160721
C        2.1446417033    1.0133686579    1.3920490474
C       -1.2190117114    0.1438916660   -0.4073974174
C        0.5421385065   -1.3987068642   -1.1943403156
C        4.4329452037    1.4011118909    2.2309178548
C        3.8012389691   -0.8643225232    1.4144049317
N        1.5279672549   -0.6479666741   -0.4211244648
N       -0.5241795540   -0.4684777397   -1.5472099152
N        3.4610361005    0.5480430662    1.5529279769
O        1.8489117084    2.0521185234    1.9901319308
H       -0.5043427444    1.5447877847    1.1701964323
H       -1.7996244623   -0.6125883900    0.1309672579
H       -1.9032617166    0.9247841322   -0.7549237137
H        1.0040838552   -1.7932347954   -2.1047921708
H        0.1508447213   -2.2344810152   -0.6044581914
H        4.2153478242    1.4457814070    3.3029054515
H        4.4026002091    2.4149023460    1.8180179796
H        5.4481013582    1.0169150850    2.0901111302
H        4.5093089230   -1.1604601895    2.1949727167
H        4.2536321405   -1.0583875571    0.4376344709
H        2.9182876635   -1.4980413798    1.5444669477
H        2.4722847441   -0.5960144002   -0.7872962772
H       -1.1746816962   -0.8762039208   -2.2103793964
24   

C       -0.1963583242    0.7523909323    0.4795094887
C        1.1042245176    0.2970928691    0.5409100342
C        2.1042574706    0.9249758844    1.4829106116
C       -1.2095324992    0.1826298166   -0.4647564384
C        0.4715716499   -1.5168240665   -1.0730102923
C        4.3627999201    1.3544344388    2.3814160248
C        3.8874827387   -0.8440078187    1.3186099830
N        1.4769265405   -0.7813416147   -0.3107451806
N       -0.5079643044   -0.5401917911   -1.5332482342
N        3.4416252138    0.5104629563    1.6241005372
O        1.7487609024    1.8587199194    2.2082778835
H       -0.4893875228    1.5921547949    1.0987297285
H       -1.8717149199   -0.4986115608    0.0797362257
H       -1.8150639509    0.9904879888   -0.8885025914
H        0.9391549708   -2.0054045230   -1.9335860429
H       -0.0020765277   -2.2794149866   -0.4455220544
H        4.1667469247    1.2625374846    3.4544051308
H        4.2488300949    2.4030356216    2.0864948117
H        5.4006906690    1.0695067060    2.1824606232
H        4.6915589077   -1.1399364069    1.9999620952
H        4.2613918313   -0.9058292153    0.2925033281
H        3.0796142639   -1.5665973960    1.4697052398
H        2.4314909767   -0.8104787119   -0.6494867648
H       -1.1553287525   -0.9435634794   -2.2021576843
