44

C     -1.47542    6.15706   -0.69074
C     -1.48609    3.73184   -0.52396
C     -1.83264    4.95979    0.00189
C     -0.81605    6.09381   -1.88959
C     -0.77426    3.62934   -1.78066
C      1.44767   -2.38819   -0.88991
C     -1.99112    2.46287    0.11836
C      1.15393    0.60315    0.95852
C     -0.89065   -0.82894    0.65153
C      0.36774    1.90932    0.74818
C     -1.51947    0.39619    1.33896
C      0.58735   -0.28473   -1.37860
C      0.53763   -0.52820    0.14329
C     -2.61913    5.07048    1.28476
C     -0.41773    7.28557   -2.71171
C      1.01975   -1.92008   -3.26862
N     -0.49313    4.86096   -2.38831
N      0.83043   -1.63389   -1.86011
N     -1.07574    1.63705    0.70196
O     -0.40030    2.58205   -2.33123
O      1.99082   -3.46773   -1.01019
O     -3.20529    2.23449    0.12638
O      1.35320   -1.72288    0.31039
H     -1.73614    7.12508   -0.27739
H      2.19531    0.75579    0.66185
H      1.15995    0.31277    2.01381
H     -0.83055   -1.65259    1.36879
H     -1.51547   -1.16303   -0.18131
H      0.60218    2.61626    1.55470
H      0.67083    2.35915   -0.19619
H     -2.60659    0.36848    1.28842
H     -1.23498    0.42727    2.39797
H     -0.33691    0.14355   -1.76844
H      1.40829    0.39133   -1.66060
H     -3.68408    4.92536    1.07634
H     -2.48531    6.05277    1.74547
H     -2.33185    4.30098    2.00536
H      0.66644    7.30994   -2.87101
H     -0.71070    8.21047   -2.21258
H     -0.89967    7.25995   -3.69583
H      0.10381   -1.69244   -3.82227
H      1.25477   -2.97979   -3.37659
H      1.84311   -1.32753   -3.69222
H     -0.00394    4.78184   -3.27533
