22

C      1.58563   -1.22277   -0.05271
C      0.48433   -0.56901    0.50198
C      2.63876   -1.64214    0.76087
C      1.47354   -0.74149    2.71120
C      0.42041   -0.32343    1.88403
C      2.55768   -1.39060    2.13145
C     -0.71823    0.36052    2.50176
C     -2.05541    1.24271    3.85296
N     -0.86808    0.60225    3.80119
N     -2.67822    1.43209    2.69849
N     -1.80665    0.85955    1.84075
N      3.66903   -1.83153    3.00238
N     -2.64223    1.71295    5.11074
O      4.61778   -2.40844    2.46247
O     -1.99176    1.50335    6.13361
O      3.57789   -1.59471    4.20859
O     -3.73411    2.27812    5.03937
H      1.62324   -1.40706   -1.12190
H     -0.32207   -0.25737   -0.15680
H      3.50567   -2.15205    0.35762
H      1.44119   -0.56158    3.77938
H     -2.02485    0.86010    0.85140
