44

C     -0.16219   -1.84261   -4.80711
C     -1.11081   -2.75930   -5.27245
C     -0.56396   -0.86523   -3.89840
C     -2.41999   -2.64819   -4.79940
C     -1.90361   -0.83599   -3.48086
C     -0.56786    2.09960    0.21384
C     -0.30349    0.93827    1.18038
C      0.00496   -1.57925    1.42649
C     -1.69798    1.76677   -0.76187
C      1.48126   -1.57026    1.86358
C     -1.31048   -0.59858   -0.52040
C      1.21427   -0.46403   -0.30440
C     -0.13446   -0.40220    0.43684
C      3.88946   -2.62148   -0.39262
C     -2.39051    0.22904   -2.51612
N     -2.81712   -1.71539   -3.92020
N     -1.41444    0.51378   -1.46670
N      2.14907   -0.81554    0.77788
O      4.42917   -1.18540    1.75844
O      4.15214    0.00241   -0.49687
S      3.75895   -1.03050    0.46516
H      0.86880   -1.88817   -5.14984
H     -0.84720   -3.53968   -5.98076
H      0.13111   -0.13301   -3.49992
H     -3.18810   -3.34352   -5.13551
H     -0.82591    3.00290    0.77768
H      0.33747    2.32977   -0.35768
H      0.57952    1.14733    1.79333
H     -1.15567    0.84134    1.86609
H     -0.22518   -2.51834    0.90985
H     -0.67551   -1.49346    2.27795
H     -2.65921    1.70570   -0.21303
H     -1.79956    2.56585   -1.50370
H      1.64027   -1.05289    2.81273
H      1.88185   -2.58423    1.96908
H     -1.17550   -1.52725   -1.08391
H     -2.24480   -0.71070    0.06565
H      1.17511   -1.23591   -1.08840
H      1.51355    0.47460   -0.76585
H      4.94721   -2.78256   -0.60814
H      3.51514   -3.41048    0.26163
H      3.31852   -2.57102   -1.32111
H     -2.55821    1.15533   -3.07929
H     -3.37002   -0.08772   -2.12071
