27

C      1.02911    2.83117    1.91832
C      1.25330    1.65587    1.71712
C      1.03773   -1.80629    0.33161
C      0.75811   -0.45787    0.54414
C      2.05882   -2.46056    1.02638
C      5.61133   -3.23313    4.88164
C      2.54529   -0.38017    2.18287
C      6.44182   -4.82135    3.27810
C      6.67208   -3.59729    5.71120
C      1.51889    0.26846    1.47985
C      5.49740   -3.85509    3.62903
C      2.81798   -1.73740    1.96162
C      7.46775   -5.08832    4.18957
C      4.38884   -3.57642    2.64424
N      7.59823   -4.50619    5.37206
N      3.86170   -2.30957    2.72454
O      4.02321   -4.43468    1.84621
Cl     8.68247   -6.28077    3.75794
H      0.82825    3.86726    2.09164
H      0.45233   -2.36806   -0.39111
H     -0.03656    0.04086   -0.00144
H      2.27260   -3.50534    0.85068
H      4.87991   -2.51456    5.23997
H      3.12862    0.18700    2.90461
H      6.36825   -5.34155    2.33016
H      6.78574   -3.14644    6.69490
H      4.33630   -1.66638    3.34468
