40

C      2.11223    1.68715    5.27660
C     -3.60390   -0.61604    8.76729
C     -1.81259    0.42744    9.98242
C     -2.90977   -0.42568    7.57165
C     -1.10243    0.62799    8.80056
C     -3.07124   -0.19705    9.99443
C     -1.65439    0.19672    7.58572
C      0.27379    0.71229    3.84920
C     -0.09478    0.32240    1.72845
C      0.80937    1.10249    5.15228
C      0.09464    0.23713    0.25038
C      1.37486   -0.51673   -0.16534
C      2.67768    0.27308    0.02877
C      3.02651    0.65966    1.47385
C      2.02426    1.60381    2.14714
C     -3.80949   -0.43089   11.29190
N      3.17931    2.15371    5.35654
N     -0.87988    0.05420    3.72814
N     -1.10623   -0.19351    2.39849
N      0.19300    0.93094    6.30864
N      0.80355    0.91368    2.58743
N     -0.99075    0.37025    6.35855
H     -4.57818   -1.09856    8.74061
H     -1.37785    0.76731   10.92013
H     -3.34046   -0.75599    6.62915
H     -0.13299    1.11344    8.80473
H     -0.78858   -0.27500   -0.13849
H      0.10128    1.24389   -0.18910
H      1.42346   -1.46540    0.38276
H      1.28459   -0.77390   -1.22662
H      3.50599   -0.31764   -0.37916
H      2.62987    1.18870   -0.57710
H      3.14181   -0.23428    2.09807
H      3.99785    1.16668    1.47389
H      2.47767    2.07768    3.01178
H      1.72608    2.40313    1.45939
H     -3.42172   -1.31525   11.81234
H     -3.70142    0.42006   11.97193
H     -4.87767   -0.59224   11.12054
H     -1.41895    0.03959    5.47725
