44

C     -3.14026    0.20668   -4.42475
C     -3.71327    1.47345   -4.56167
C     -1.89622    0.09938   -3.80160
C     -3.00582    2.57319   -4.06653
C     -1.25951    1.26040   -3.33729
C     -0.12265    2.51464    0.93942
C     -0.86564    1.35698    1.62277
C     -1.41299   -1.14666    1.51614
C     -0.39004    2.53245   -0.56955
C     -0.64632   -2.41782    1.10492
C     -0.87207    0.16951   -0.57622
C      0.84402   -0.49451    1.14089
C     -0.59130    0.01488    0.93107
C      2.07617   -4.19409    0.15847
C      0.06491    1.18039   -2.59874
N     -1.81023    2.48212   -3.46947
N     -0.04394    1.22916   -1.13777
N      0.76471   -1.96684    0.92184
O      2.75841   -1.75157   -0.65062
O      0.63285   -2.80699   -1.55855
S      1.56449   -2.57493   -0.43797
H     -3.65074   -0.67819   -4.79725
H     -4.67825    1.61208   -5.04117
H     -1.41523   -0.86679   -3.67322
H     -3.41833    3.57752   -4.15838
H     -0.43248    3.46980    1.37903
H      0.95603    2.41485    1.10641
H     -0.59396    1.29739    2.68425
H     -1.94633    1.55056    1.58446
H     -2.44430   -1.15959    1.15054
H     -1.44701   -1.05904    2.60782
H     -1.44518    2.79737   -0.76033
H      0.22107    3.29859   -1.05573
H     -0.69061   -3.19632    1.87258
H     -1.03609   -2.82940    0.17007
H     -0.65274   -0.76072   -1.10687
H     -1.95230    0.36879   -0.71110
H      1.56231   -0.03921    0.46145
H      1.17612   -0.32178    2.17138
H      2.57580   -4.69243   -0.67416
H      2.75706   -4.04810    0.99658
H      1.19097   -4.75619    0.45931
H      0.57496    0.24719   -2.85952
H      0.69839    2.01363   -2.91609
