31

C      3.13955    1.04872   -0.06815
C      2.85406    2.39887    0.24841
C      4.44364    0.62582   -0.23826
C      9.61282   -2.08618   -0.14511
C      3.87810    3.31047    0.40105
C     10.94633   -2.48107   -0.07912
C      9.37550   -3.27319   -2.23650
C      7.44560    3.42303    0.28003
C      5.51812    1.54499   -0.09241
C      8.80764   -2.46754   -1.23615
C      5.22927    2.90775    0.24155
C     11.51091   -3.25996   -1.09436
C     10.71344   -3.66224   -2.17765
C      6.91885    1.25045   -0.23103
C      7.37784   -2.11647   -1.35780
N      6.20918    3.84773    0.42423
N      7.85620    2.17396   -0.04021
N      6.76151   -1.03029   -1.02722
N      7.46401    0.01019   -0.52117
Cl    13.18666   -3.71860   -0.97522
Cl    11.35850   -4.65062   -3.46195
H      2.32489    0.33832   -0.18010
H      1.82183    2.71560    0.37491
H      4.65702   -0.40295   -0.49097
H      9.19351   -1.52025    0.68033
H      3.68926    4.35030    0.64973
H     11.56176   -2.19303    0.76713
H      8.77292   -3.59685   -3.08012
H      8.24216    4.15087    0.42731
H      6.73091   -2.86414   -1.81364
H      8.47965    0.04595   -0.61812
