20

C      1.98188   -0.96323   -0.10505
C      0.88357   -0.38994    0.53261
C      2.95319   -1.64113    0.64067
C     -2.00667   -2.38214    4.69921
C     -2.84988   -1.41528    5.20047
C      0.71961   -0.50312    1.92294
C      2.80607   -1.72830    2.01904
C      1.70157   -1.16823    2.66105
C     -1.25788   -0.66263    3.53643
C     -0.49057    0.12492    2.54371
N     -1.11228   -1.94683    3.76183
O     -0.87828    1.23581    2.19625
F      3.74516   -2.34896    2.76364
F      1.64517   -1.23081    4.00311
S     -2.52836    0.10800    4.46491
H      2.09025   -0.88247   -1.18226
H      0.12943    0.14852   -0.03233
H      3.82499   -2.09083    0.17512
H     -2.01067   -3.42592    4.99382
H     -3.62288   -1.52889    5.94993
