32

C      2.73342   -1.58185   -2.26378
C      1.30752    0.41555   -2.07707
C      1.18198   -1.31264   -0.36636
C      0.33928    1.14619   -1.39354
C      0.21736   -0.57697    0.30771
C     -4.64443    5.24839    1.81981
C      1.73589   -0.82133   -1.56649
C     -0.22024    0.66558   -0.19521
C     -3.70002    4.85183    0.87283
C     -4.88172    4.39217    2.90854
C     -3.33227    2.94386    2.06404
C     -1.23653    1.47668    0.48290
C     -3.36628    5.68895   -0.33195
C     -5.87503    4.72789    3.98834
N      3.54401   -2.20014   -2.83012
N     -3.03370    3.68734    0.99181
N     -4.22492    3.23591    3.03248
N     -1.75577    1.04177    1.58497
N     -2.69832    1.72877    2.27193
H      1.73477    0.79271   -3.00118
H      1.51738   -2.26931    0.02292
H      0.00982    2.10308   -1.79121
H     -0.21336   -0.94853    1.23160
H     -5.17914    6.18696    1.71965
H     -1.52152    2.42369    0.03283
H     -2.30037    5.93839   -0.32899
H     -3.56374    5.12118   -1.24685
H     -3.94638    6.61406   -0.35712
H     -6.60371    3.91822    4.09072
H     -5.36071    4.82336    4.95003
H     -6.40400    5.66006    3.77729
H     -3.00235    1.25406    3.11280
