15

C      0.24816   -0.38590    0.94116
C      1.63419   -0.63737    2.90621
C     -0.63720   -1.29081    1.52713
C      1.40233   -0.06486    1.66104
C      0.66322   -1.53428    3.38461
C     -0.46237   -3.33463    5.23888
N     -0.44346   -1.86010    2.72564
F     -0.56790   -4.31137    4.32477
F     -1.62704   -2.66941    5.28084
F     -0.27457   -3.91705    6.44736
S      0.99249   -2.25317    4.99302
Br     2.66990    1.16483    0.93577
H      0.04332    0.04616   -0.03182
H      2.52376   -0.40238    3.48159
H     -1.55050   -1.57426    1.00796
