18   

C        4.6331489399    1.3459722803    0.7538182995
C        5.8139907180    1.1162717190    0.0578439130
C        3.5008874128    0.5758692131    0.4819786556
C        5.8525191743    0.1176164176   -0.9129831799
C        3.5148812075   -0.4449182471   -0.4880718959
C        4.7243040758   -0.6614946622   -1.1988640866
C        2.2836726517   -1.2595635898   -0.7409971179
C        0.9255131855   -0.7892421980   -0.2311504188
O        2.3102354744   -2.3131859061   -1.3628699842
O        4.8394502493   -1.6001087076   -2.1827804514
H        4.5933087544    2.1217186514    1.5103739056
H        6.6964253914    1.7112887900    0.2677202339
H        2.6063407922    0.7855760688    1.0569106810
H        6.7762154402   -0.0470308239   -1.4536462980
H        0.7670970416    0.2586430522   -0.4992965576
H        0.8758647079   -0.9036686504    0.8547636166
H        0.1296915168   -1.3874176071   -0.6844092632
H        5.7506973943   -1.6457513685   -2.5119243612
18   

C        4.6560720029    1.3455003166    0.7980864561
C        5.8087066308    1.1619622925    0.0407734357
C        3.5350944513    0.5453601376    0.5677991315
C        5.8294911035    0.1814569744   -0.9507644495
C        3.5390812337   -0.4554416673   -0.4197620245
C        4.7108291554   -0.6248424198   -1.1941939988
C        2.3294741382   -1.3189268933   -0.6179731070
C        0.9406437142   -0.7750284799   -0.3057242954
O        2.4123600260   -2.4711546229   -1.0185709282
O        4.7846255091   -1.5399449431   -2.2039745142
H        4.6309738172    2.1060787002    1.5704842748
H        6.6827894316    1.7791407844    0.2191878997
H        2.6587921227    0.7057303275    1.1858788081
H        6.7286193949    0.0543171911   -1.5406950787
H        0.8585711571    0.2596013620   -0.6492620787
H        0.7583990292   -0.8184452219    0.7710675530
H        0.1829331587   -1.3739966528   -0.8189728175
H        5.6888866107   -1.5978300998   -2.5507693118
18   

C        4.7236058685    1.2900806702    0.8579608990
C        5.8289614716    1.1404000838    0.0240818702
C        3.5968832321    0.4855203685    0.6732469358
C        5.7968165094    0.1891054951   -0.9967348211
C        3.5526894013   -0.4797736068   -0.3443829146
C        4.6707240160   -0.6193332244   -1.1921515787
C        2.3474367075   -1.3659700565   -0.4960315700
C        0.9502040509   -0.7750503162   -0.3656897608
O        2.4567350047   -2.5681761037   -0.6810882383
O        4.6741181715   -1.5111447836   -2.2252947939
H        4.7408016532    2.0260546767    1.6540197105
H        6.7074983011    1.7604685632    0.1669971906
H        2.7546132487    0.6093641959    1.3450198009
H        6.6581161559    0.0867103214   -1.6450196135
H        0.8937599499    0.1644802467   -0.9218806004
H        0.7197858502   -0.5888423505    0.6860964822
H        0.2119788178   -1.4706904567   -0.7747291667
H        5.5609874817   -1.5831981560   -2.6129038117
18   

C        4.7769615838    1.2316690551    0.9525418071
C        5.8308165876    1.1371717804    0.0451625143
C        3.6523811039    0.4162228940    0.8024124374
C        5.7505626956    0.2283880118   -1.0123180395
C        3.5638512259   -0.4991184923   -0.2538192506
C        4.6258028428   -0.5893715211   -1.1706775763
C        2.3643005783   -1.4049516050   -0.3769963154
C        0.9631906705   -0.8087623169   -0.4041813702
O        2.4840695210   -2.6188476484   -0.3551165292
O        4.5692325064   -1.4487951410   -2.2294477399
H        4.8335868054    1.9317161032    1.7785918352
H        6.7073851248    1.7655606352    0.1612312737
H        2.8511565428    0.4895706247    1.5296132306
H        6.5719453537    0.1659715299   -1.7151802778
H        0.7939809528   -0.3288131647   -1.3717160536
H        0.8460016126   -0.0657394538    0.3877126003
H        0.2178471353   -1.5966132748   -0.2633215584
H        5.4326237891   -1.5044310579   -2.6700835013
18   

C        4.8386256812    1.1837746582    1.0318076918
C        5.8391247458    1.1234481043    0.0622275127
C        3.7104653072    0.3667376636    0.9204153735
C        5.7020284905    0.2466484309   -1.0169378434
C        3.5680907327   -0.5143591444   -0.1557819405
C        4.5729332219   -0.5718901405   -1.1338144493
C        2.3581691156   -1.4159331338   -0.2556184048
C        0.9906649511   -0.8060595989   -0.5242999316
O        2.4380934431   -2.6069932263   -0.0090216900
O        4.4535330788   -1.4055747720   -2.2079335959
H        4.9388034830    1.8590087529    1.8741959140
H        6.7180227398    1.7535688355    0.1470481584
H        2.9441391083    0.4108631450    1.6870672655
H        6.4818006160    0.2098621370   -1.7673927323
H        0.9020949195   -0.5743583903   -1.5889999306
H        0.8687355346    0.1144997139    0.0517291588
H        0.2026521645   -1.5106234378   -0.2442700254
H        5.2844428126   -1.4338336759   -2.7101019367
18   

C        4.9142367399    1.1369592940    1.1193396504
C        5.8512057948    1.1056343596    0.0868140094
C        3.7790521339    0.3245279131    1.0545416343
C        5.6429454557    0.2631489866   -1.0082884719
C        3.5701342767   -0.5278990587   -0.0328433599
C        4.5065762810   -0.5506182256   -1.0771576564
C        2.3326806703   -1.3957109205   -0.1114142168
C        1.0784386049   -0.8460173108   -0.7723221168
O        2.3184521221   -2.5209620057    0.3569035494
O        4.3134659767   -1.3497971707   -2.1669313716
H        5.0674404693    1.7880053669    1.9727148567
H        6.7346539695    1.7333022032    0.1344141295
H        3.0568449959    0.3492429856    1.8638800107
H        6.3722999903    0.2506649229   -1.8085870455
H        1.2780004835   -0.6567855444   -1.8303912281
H        0.7866782185    0.0903329177   -0.2900628367
H        0.2598384992   -1.5659185303   -0.6856047182
H        5.1000016907   -1.3407318671   -2.7372607256
18   

C        4.9701236748    1.0775134566    1.1664757057
C        5.8557072163    1.0796483082    0.0891756612
C        3.8243295764    0.2788919426    1.1243309099
C        5.5867961522    0.2831552955   -1.0270884929
C        3.5543983572   -0.5279086104    0.0145702431
C        4.4399971148   -0.5176555789   -1.0743652654
C        2.2910481144   -1.3567723676   -0.0306313630
C        1.1372969018   -0.9255122727   -0.9244364102
O        2.1822206524   -2.3746476185    0.6332516641
O        4.1962937810   -1.2792287598   -2.1808200446
H        5.1704861107    1.6926067604    2.0365914958
H        6.7469361803    1.6973334257    0.1191520080
H        3.1399477969    0.2782805127    1.9664977489
H        6.2787044140    0.2955177131   -1.8599787116
H        1.4640936211   -0.9008003710   -1.9669945992
H        0.8001100058    0.0722176088   -0.6322960081
H        0.3044948753   -1.6277959882   -0.8292810370
H        4.9509529576   -1.2383924238   -2.7917704150
18   

C        5.0275439265    1.0331201184    1.1988496172
C        5.8693797908    1.0699346186    0.0873066580
C        3.8679040532    0.2546136141    1.1683375815
C        5.5444626950    0.3277477408   -1.0519107538
C        3.5428392847   -0.4978245275    0.0325380724
C        4.3838304981   -0.4537562949   -1.0906134006
C        2.2553888184   -1.2841796603    0.0325155930
C        1.1591129045   -0.9687910854   -0.9756944606
O        2.0621335897   -2.1526924064    0.8700791312
O        4.0927669110   -1.1675914554   -2.2168891686
H        5.2720953572    1.6059341962    2.0863599279
H        6.7711740701    1.6724440733    0.1090976124
H        3.2161623863    0.2267323166    2.0359150065
H        6.2053686097    0.3665628324   -1.9088113884
H        1.4157837461   -1.3922633833   -1.9496846107
H        1.0486532401    0.1141997117   -1.0734577043
H        0.2091334110   -1.3948457654   -0.6416947845
H        4.8195656312   -1.0957420526   -2.8582404831
18   

C        5.0238362307    0.8999920105    1.2659797218
C        5.8416195117    0.9702152450    0.1386765804
C        3.8345499052    0.1689903836    1.2190311664
C        5.4646540360    0.3073211567   -1.0328081675
C        3.4536816969   -0.5034781805    0.0479737210
C        4.2747115964   -0.4279479759   -1.0907943567
C        2.1348636819   -1.2265628262    0.0548249545
C        1.1353179337   -1.0626733913   -1.0823055143
O        1.8274942007   -1.9241431991    1.0129604984
O        3.9434472850   -1.0671396344   -2.2503999462
H        5.3089642111    1.4111589741    2.1786758676
H        6.7657757244    1.5371826892    0.1735389698
H        3.2018534593    0.1189403226    2.0999340432
H        6.1098014437    0.3710746116   -1.9001601042
H        1.3051681798   -1.8365740969   -1.8352861053
H        1.2542596617   -0.0793808829   -1.5448701043
H        0.1156782315   -1.1523487150   -0.6980622094
H        4.6519625939   -0.9606616313   -2.9073073559
18   

C        5.0770859387    0.8538707326    1.2798328316
C        5.8709491205    0.9418143356    0.1379459197
C        3.8596999682    0.1714424311    1.2314795050
C        5.4437162075    0.3423580562   -1.0495379429
C        3.4201689122   -0.4326382186    0.0407205300
C        4.2257620372   -0.3456371931   -1.1122392147
C        2.0824425880   -1.1168180306    0.0737127527
C        1.1450247138   -1.1282066362   -1.1274519330
O        1.6868705618   -1.6163858788    1.1214236485
O        3.8643381419   -0.9313094951   -2.2907165750
H        5.4021335788    1.3140636580    2.2062139128
H        6.8168008034    1.4716840212    0.1745175021
H        3.2517159043    0.1132797924    2.1292577568
H        6.0745883041    0.4160723202   -1.9265513417
H        1.3817877015   -1.9792812652   -1.7712182661
H        1.2539718137   -0.2015532370   -1.6969045356
H        0.1083068352   -1.2131497673   -0.7905180459
H        4.5637841409   -0.8096121916   -2.9547052213
18   

C        5.0830098063    0.7998025997    1.3193374409
C        5.8609611426    0.8893164033    0.1682669380
C        3.8307047940    0.1846207058    1.2692036549
C        5.3831669294    0.3571648669   -1.0306945335
C        3.3329246644   -0.3496816010    0.0655402595
C        4.1299666351   -0.2644106737   -1.0982630807
C        1.9669680649   -0.9783938683    0.1183463243
C        1.1066664309   -1.2078728125   -1.1190034252
O        1.4736853313   -1.2520117208    1.2086311714
O        3.7350380747   -0.7845958064   -2.2960989680
H        5.4471614380    1.2072294787    2.2558395718
H        6.8338619593    1.3675769148    0.2066520161
H        3.2452422477    0.1312731446    2.1820301239
H        6.0042438061    0.4300995079   -1.9147457499
H        1.4613433009   -2.0904136387   -1.6576421143
H        1.1513421745   -0.3346739735   -1.7748360140
H        0.0656042252   -1.3687659491   -0.8255543058
H        4.4289763159   -0.6537210743   -2.9640896105
18   

C        5.1368197948    0.7417162166    1.3248051940
C        5.9095595269    0.8403126040    0.1720257457
C        3.8570325086    0.1876727448    1.2623507863
C        5.3966425805    0.3825850122   -1.0421944764
C        3.3234184494   -0.2794076574    0.0452144916
C        4.1148238724   -0.1761446568   -1.1239601716
C        1.9337491216   -0.8573044862    0.0966843421
C        1.2005330520   -1.4089625360   -1.1209809561
O        1.3396025054   -0.8958518344    1.1707119722
O        3.6851391019   -0.6003470135   -2.3470148708
H        5.5263533857    1.0945459406    2.2731866271
H        6.9041074128    1.2707881307    0.2201115731
H        3.2829163436    0.1269121459    2.1818019715
H        6.0121751773    0.4673542350   -1.9290721144
H        1.7624868538   -2.2430102060   -1.5489829927
H        1.0763611520   -0.6226347652   -1.8699042358
H        0.2104203457   -1.7704837916   -0.8294344912
H        4.3713633911   -0.4426380979   -3.0171389779
18   

C        5.1399417172    0.6652486359    1.3459473734
C        5.9096647697    0.7742044044    0.1910281562
C        3.8354123420    0.1734434769    1.2713793555
C        5.3676157291    0.3938529184   -1.0379942721
C        3.2784060294   -0.2209447857    0.0400085805
C        4.0604104618   -0.1001399833   -1.1308297884
C        1.8700857630   -0.7495810726    0.0729884152
C        1.2736311332   -1.6023571990   -1.0409366450
O        1.1817370469   -0.5623994570    1.0720154821
O        3.5850169848   -0.4302228570   -2.3663127714
H        5.5512228280    0.9613322681    2.3044992190
H        6.9234472610    1.1558849301    0.2485399598
H        3.2594732080    0.0975902967    2.1886606308
H        5.9783432035    0.4912401461   -1.9268869439
H        2.0021431373   -2.3446659100   -1.3768481735
H        0.9848881449   -0.9648488961   -1.8805891291
H        0.3865910676   -2.1271242350   -0.6754383677
H        4.2577059685   -0.2491428056   -3.0442430901
18   

C        4.6333768235    1.9329423997    0.1016785782
C        5.7639059413    1.1271494488   -0.0185699464
C        3.3673870202    1.3994544985   -0.1487914753
C        5.6227471557   -0.2114805757   -0.3929189240
C        3.2150583195    0.0531707736   -0.5233993714
C        4.3596343138   -0.7594388298   -0.6478089991
C        1.8128965991   -0.4423375250   -0.7404684171
C        1.3901682922   -1.8645637069   -0.3936949193
O        0.9522594038    0.3377799710   -1.1334834336
O        4.2780505434   -2.0667810401   -1.0307561433
H        4.7339947054    2.9734951918    0.3893264797
H        6.7477676254    1.5406581816    0.1757531443
H        2.4961276616    2.0397654300   -0.0490805342
H        6.5116931866   -0.8227483128   -0.4862603585
H        1.9515962952   -2.2216956155    0.4735349055
H        1.5804913712   -2.5231805025   -1.2450590148
H        0.3233529999   -1.8887810216   -0.1552784406
H        5.1679976581   -2.4495710660   -1.1106420002
18   

C        4.6038665220    1.9101860208    0.1632564266
C        5.7455799000    1.1228543731    0.0179765825
C        3.3485204632    1.3794519201   -0.1423504704
C        5.6254972941   -0.1946665866   -0.4332677898
C        3.2220406354    0.0596335647   -0.6014095864
C        4.3721698014   -0.7365977809   -0.7421822416
C        1.8346911296   -0.4603524828   -0.8603795496
C        1.3845613434   -1.8153209556   -0.3307932167
O        1.0270533710    0.2333182828   -1.4650992017
O        4.2955817324   -2.0249552105   -1.1863187105
H        4.6882542065    2.9331521928    0.5125741446
H        6.7213269957    1.5335920741    0.2545022562
H        2.4634031258    1.9974366610   -0.0263277408
H        6.5209616465   -0.7939294398   -0.5410024512
H        1.9340127882   -2.0605325920    0.5818688041
H        1.5752747762   -2.5855254090   -1.0825676207
H        0.3151880244   -1.7905125957   -0.1045748969
H        5.1867920605   -2.4005922007   -1.2837863018
18   

C        4.5677681990    1.8358735557    0.2279250264
C        5.7211097782    1.0771152942    0.0291872304
C        3.3209929032    1.3122003974   -0.1228594898
C        5.6201360071   -0.2049570511   -0.5187119420
C        3.2153089642    0.0315659743   -0.6802449048
C        4.3744688164   -0.7369887913   -0.8717092988
C        1.8424448056   -0.5069535345   -0.9982155475
C        1.3227359166   -1.7549966188   -0.2980264625
O        1.1161397421    0.0785887642   -1.7873617398
O        4.3077430029   -1.9915240135   -1.4050438584
H        4.6371519683    2.8311649416    0.6523985196
H        6.6905323578    1.4820474819    0.2993330436
H        2.4257928382    1.9064027700    0.0313098953
H        6.5229384644   -0.7844249383   -0.6661800558
H        1.5658835422   -1.7084863021    0.7665509305
H        1.7834343312   -2.6454578378   -0.7323373706
H        0.2375702421   -1.8244696249   -0.4126312607
H        5.2019927246   -2.3428405821   -1.5520980006
18   

C        4.6407452425    1.8267863788    0.3526211225
C        5.8060269342    1.0973515505    0.1184315047
C        3.4030623344    1.3038490689   -0.0309010369
C        5.7247281115   -0.1547730506   -0.4966321207
C        3.3155562498    0.0559228380   -0.6556509592
C        4.4872822317   -0.6831423297   -0.8816550382
C        1.9654372511   -0.5117718287   -1.0299057302
C        1.3704528612   -1.6467047448   -0.2089595776
O        1.3447822698   -0.0803508760   -1.9876716388
O        4.4351908184   -1.9127835870   -1.4723312127
H        4.6941747899    2.7990208696    0.8295826622
H        6.7687041064    1.5009333529    0.4135540675
H        2.4994924108    1.8767642221    0.1506254337
H        6.6351819600   -0.7148091977   -0.6699236285
H        1.2538531000   -1.3262848186    0.8294244762
H        2.0321267030   -2.5158534311   -0.2421396216
H        0.3926792269   -1.9285694176   -0.6093681058
H        5.3327484705   -2.2407705205   -1.6491176715
18   

C        4.6248892701    1.7745558623    0.4295401785
C        5.8108742147    1.0983047898    0.1447064126
C        3.4005361016    1.2315423130    0.0308123680
C        5.7631400250   -0.1218562274   -0.5345104929
C        3.3466797739    0.0168816565   -0.6579505931
C        4.5387635938   -0.6692658439   -0.9339329006
C        2.0198763456   -0.5797356977   -1.0753633099
C        1.2887909087   -1.5108252201   -0.1210730763
O        1.5206570610   -0.3175839679   -2.1559872953
O        4.5151575058   -1.8730340137   -1.5773387127
H        4.6524069373    2.7216788555    0.9565907475
H        6.7633749361    1.5175500932    0.4507927173
H        2.4818685354    1.7654947080    0.2502824256
H        6.6885635846   -0.6432197007   -0.7451353674
H        1.1277879865   -1.0074188741    0.8355398589
H        1.8905399235   -2.4085646140    0.0435638455
H        0.3221848529   -1.8001835974   -0.5427719845
H        5.4178807825   -2.1576900275   -1.7965588586
18   

C        4.6013855977    1.6757170225    0.5019553600
C        5.8138783898    1.0740237530    0.1664643251
C        3.3982152900    1.0905254321    0.0986739630
C        5.8143188494   -0.1140582214   -0.5688152034
C        3.3916856427   -0.0971020480   -0.6391016682
C        4.6117914184   -0.7049139016   -0.9729664379
C        2.0871838922   -0.7101778706   -1.0964170613
C        1.1356211488   -1.2997715498   -0.0663161236
O        1.7301550443   -0.6361832941   -2.2595425139
O        4.6386702059   -1.8760920813   -1.6734219603
H        4.5922985887    2.5995605552    1.0694278583
H        6.7500530243    1.5271054135    0.4746888410
H        2.4605692352    1.5735497327    0.3525743838
H        6.7604453556   -0.5765525431   -0.8208543472
H        1.0916672372   -0.6580180021    0.8170442256
H        1.4931203060   -2.2895006356    0.2299047425
H        0.1322830817   -1.3936063577   -0.4909324170
H        5.5465804532   -2.0886073969   -1.9453017239
18   

C        4.5873769438    1.5891786548    0.5710030712
C        5.8160857312    1.0573663538    0.1832784786
C        3.4013773660    0.9691332496    0.1695989583
C        5.8506140520   -0.0972990189   -0.6016722947
C        3.4262035409   -0.1879580558   -0.6189376908
C        4.6666469780   -0.7254586051   -1.0048188353
C        2.1378869441   -0.8202344679   -1.0829247623
C        1.0683740331   -1.1964380616   -0.0661122350
O        1.8879807669   -0.9476320896   -2.2702253857
O        4.7369425531   -1.8663153402   -1.7506788495
H        4.5521594751    2.4877255643    1.1768116785
H        6.7387814717    1.5386784212    0.4893629733
H        2.4546726607    1.4086710220    0.4640783281
H        6.8099936912   -0.5059997385   -0.8934519805
H        0.9027602544   -0.3783775293    0.6383457192
H        1.3913750585   -2.0829380285    0.4860606096
H        0.1274385620   -1.4194567453   -0.5769825462
H        5.6446561692   -2.0152498198   -2.0614421971
18   

C        4.5896341848    1.4929909720    0.6481591512
C        5.8229804696    1.0375990224    0.1887727702
C        3.4169433033    0.8414435645    0.2592721180
C        5.8756164250   -0.0743790016   -0.6531173685
C        3.4536729761   -0.2734179294   -0.5920953886
C        4.7060734456   -0.7363168921   -1.0453525927
C        2.1758319672   -0.9312762710   -1.0345160578
C        1.0531050197   -1.1592909980   -0.0315611920
O        1.9925979962   -1.2542376615   -2.1979606306
O        4.8118148600   -1.8395188964   -1.8419020870
H        4.5398555399    2.3567566341    1.3016831342
H        6.7356600863    1.5434716168    0.4851599165
H        2.4673310039    1.2240328736    0.6168935829
H        6.8402145152   -0.4256926831   -0.9976816113
H        0.5363877274   -0.2181183406    0.1714441438
H        1.4657304949   -1.5555584193    0.9000846814
H        0.3356777891   -1.8805305244   -0.4332036079
H        5.7172439940   -1.9336582858   -2.1785105176
18   

C        4.5826632183    1.4237068563    0.7108281829
C        5.8176382461    1.0461818083    0.1930187570
C        3.4274337081    0.7374722381    0.3308361422
C        5.8899833823   -0.0242298764   -0.6980374825
C        3.4775569990   -0.3374059328   -0.5740333023
C        4.7395327218   -0.7229813513   -1.0840153966
C        2.2133872515   -1.0303569648   -0.9864765866
C        1.0264261939   -1.0897589246   -0.0326453477
O        2.0871653499   -1.5527736810   -2.0846796626
O        4.8844434337   -1.7840944940   -1.9299148186
H        4.5174260479    2.2542804198    1.4048019093
H        6.7168346434    1.5792298836    0.4829621652
H        2.4800889424    1.0673826340    0.7423461932
H        6.8577378505   -0.3155376324   -1.0868880469
H        0.4810625493   -0.1429477283   -0.0592288491
H        1.3745465577   -1.2829995534    0.9855319756
H        0.3512050894   -1.8974032682   -0.3294580403
H        5.7934630653   -1.8355863070   -2.2650853473
18   

C        4.6207900306    1.3814591164    0.7150207877
C        5.8377373855    1.0479811093    0.1324739840
C        3.4647988220    0.6795402156    0.3686603171
C        5.8910278963    0.0068742850   -0.7919491972
C        3.4892121383   -0.3712249734   -0.5686232400
C        4.7405654593   -0.7083133172   -1.1476939725
C        2.2250232610   -1.0910941863   -0.9251415909
C        0.9827395881   -0.9537663325   -0.0512910375
O        2.1364666913   -1.8138890230   -1.9086446949
O        4.8848073522   -1.7305616979   -2.0401899614
H        4.5697222641    2.1894924988    1.4362837053
H        6.7377644555    1.5924497358    0.3975957003
H        2.5379597919    0.9820618775    0.8421447903
H        6.8462522387   -0.2483905413   -1.2335671791
H        0.5472086087    0.0407829088   -0.1775931603
H        1.2438555921   -1.1115398730    0.9984648749
H        0.2392607744   -1.7023747012   -0.3401062925
H        5.7951710019   -1.7736719287   -2.3721083075
18   

C        4.6296201123    1.3631536810    0.7326776772
C        5.8322206686    1.0850063687    0.0954469155
C        3.4864214599    0.6250096212    0.4213919426
C        5.8829987935    0.0661348422   -0.8527034697
C        3.5073892624   -0.4113221858   -0.5332159435
C        4.7452474055   -0.6839004923   -1.1766033263
C        2.2589105601   -1.1798849009   -0.8387197265
C        0.9501179849   -0.8554549013   -0.1252594653
O        2.2285397163   -2.0876898648   -1.6594186106
O        4.8890443310   -1.6621162588   -2.1171690473
H        4.5801025513    2.1545147957    1.4723126597
H        6.7226535115    1.6565268920    0.3347956289
H        2.5753353113    0.8835827895    0.9479434315
H        6.8262915273   -0.1410744537   -1.3425142109
H        0.6576814314    0.1772124109   -0.3326086687
H        1.0667094408   -0.9982211401    0.9522097683
H        0.1566413715   -1.5196081823   -0.4802675324
H        5.8023436713   -1.6989123499   -2.4413938082
