24   
Generated by ForceBalance from scan.xyz: Frame 1 of 24
C       -4.3623915429    3.2510290308   -1.5237181859
C       -2.9190238414    4.9869830825   -0.7008674405
C        0.0264812077   -0.1321332426   -0.9115448482
C       -3.3612203143   -0.1213199445   -0.3876730540
C       -1.9534262667    2.9075945178   -1.4973866347
C       -1.6886521367    1.5082198404   -0.9482077919
N       -3.1004796507    3.5451985622   -0.8434726514
O       -0.3966312533    1.1435505762   -1.3773651635
O       -2.6662732532    0.5841061335   -1.4119450548
H       -4.4784210510    2.1737987369   -1.6471512559
H       -4.4193985640    3.7153343441   -2.5270702588
H       -5.1987495259    3.6290673169   -0.9259691390
H       -2.0148443962    5.1959108406   -0.1206921872
H       -3.7716474448    5.4093570083   -0.1586764487
H       -2.8389338497    5.5153286396   -1.6702642044
H        1.0580832466   -0.2626197605   -1.2451212806
H       -0.5931543617   -0.9347106721   -1.3276905883
H       -0.0042660980   -0.1832085018    0.1878258674
H       -4.0436207316   -0.8104604364   -0.8908439308
H       -3.9420779995    0.5608342732    0.2466949036
H       -2.6766382748   -0.7001176337    0.2471477892
H       -1.0552276752    3.4955440639   -1.2904648649
H       -2.0612001215    2.8492008466   -2.5926527731
H       -1.7224803003    1.5388573419    0.1532652646
24   
Generated by ForceBalance from scan.xyz: Frame 2 of 24
C       -3.9933956112    2.7081775839   -2.8530724855
C       -1.7654933256    3.6078586330   -2.5425468286
C       -3.9139561844   -0.4347948583   -0.1439279259
C       -0.1048870566    0.1560879530   -0.7417387277
C       -2.9201136127    2.5448882939   -0.6628815702
C       -2.2465974845    1.1605178006   -0.7361957732
N       -3.0427389151    3.2864370788   -1.9138739108
O       -2.7550594222    0.2754219438    0.2631402431
O       -0.8759005068    1.3365575733   -0.5243503131
H       -4.9516293545    2.5370436312   -2.3511781265
H       -3.6667783062    1.7509466785   -3.3024678928
H       -4.1661477130    3.4120799867   -3.6745337020
H       -1.0975888497    4.0609490505   -1.8047810877
H       -1.9321883141    4.3298766537   -3.3498303509
H       -1.2444775791    2.7322556242   -2.9693638197
H       -4.1888022196   -1.0938305394    0.6824731527
H       -3.7188084388   -1.0431844428   -1.0400713051
H       -4.7597991783    0.2353976785   -0.3559612650
H        0.9415344360    0.4365806719   -0.6065921925
H       -0.2477346200   -0.2216018013   -1.7652348015
H       -0.3725367556   -0.6281064973   -0.0262606415
H       -3.9254811884    2.4142958401   -0.2495739864
H       -2.3499411699    3.1433396698    0.0552661875
H       -2.4137706478    0.6901452561   -1.7231666747
24   
Generated by ForceBalance from scan.xyz: Frame 3 of 24
C       -4.1160832824    2.6681891015   -2.6791685346
C       -1.8561038112    3.5450154193   -2.6604321392
C       -3.9298373841   -0.3615326680   -0.4113101524
C       -0.0451268175    0.1224039319   -0.5484849754
C       -2.7966010761    2.5930392204   -0.6208790454
C       -2.1494003646    1.1912850193   -0.7143230622
N       -3.0612981156    3.2782452284   -1.8825329691
O       -2.7769147974    0.2437406725    0.1509253445
O       -0.8055164680    1.3132441144   -0.3488645834
H       -5.0210769829    2.5606454334   -2.0721862329
H       -3.8602936518    1.6731946067   -3.0910016356
H       -4.3554299760    3.3212624977   -3.5252806468
H       -1.1143071545    4.0399981922   -2.0269215065
H       -2.1005981429    4.2136848788   -3.4930273933
H       -1.3843723666    2.6385622381   -3.0827170310
H       -4.2898613632   -1.0932050733    0.3151763607
H       -3.6943166032   -0.8768659903   -1.3548516244
H       -4.7299125525    0.3675267882   -0.6042008416
H        0.9891635357    0.3673559752   -0.2988933780
H       -0.0960491075   -0.2021055341   -1.5985763951
H       -0.4000050213   -0.6870381034    0.0971274750
H       -3.7437292676    2.4981967794   -0.0799829974
H       -2.1353000200    3.2164912197   -0.0113238639
H       -2.2178871875    0.7970519591   -1.7458930064
24   
Generated by ForceBalance from scan.xyz: Frame 4 of 24
C       -4.2220573586    2.6750000169   -2.5170118052
C       -1.9708025397    3.5234595688   -2.8034994169
C       -3.8840567578   -0.3330279245   -0.6571215632
C       -0.0508476231    0.0543227708   -0.3193035285
C       -2.6558195997    2.6668377792   -0.6245246992
C       -2.0668313850    1.2339446602   -0.7050782976
N       -3.0718001941    3.2922157234   -1.8758367051
O       -2.8181331189    0.2810229225    0.0475860142
O       -0.7664200880    1.2818682416   -0.1902893134
H       -5.0451228758    2.5954831927   -1.7994984778
H       -4.0279882662    1.6670334095   -2.9303136316
H       -4.5588239874    3.3091455668   -3.3444046726
H       -1.1588496284    4.0429243664   -2.2855164684
H       -2.3144430454    4.1594340126   -3.6266245935
H       -1.5523703846    2.6004040784   -3.2466798097
H       -4.2612329669   -1.1359366400   -0.0195389770
H       -3.5427607602   -0.7637763674   -1.6104938051
H       -4.7040942713    0.3673541918   -0.8646655711
H        0.9633219707    0.2464133920    0.0367195127
H       -0.0099012086   -0.2650830582   -1.3715295848
H       -0.5102262826   -0.7379295846    0.2798797944
H       -3.5192014509    2.6355549146    0.0487367043
H       -1.8989518391    3.3029376326   -0.1566486583
H       -2.0377640310    0.8819599962   -1.7538860927
24   
Generated by ForceBalance from scan.xyz: Frame 5 of 24
C       -1.7446340414    4.1514952569   -1.2656608890
C       -4.0087757226    4.2973256271   -2.0559206125
C       -2.3166343885   -1.0352504285   -1.9461123156
C       -0.9454021960    1.2458063584    0.9630588480
C       -3.2925984824    2.3393524017   -0.8326284018
C       -2.3855740758    1.0996570163   -0.9309304803
N       -2.8952093206    3.4017713330   -1.7574334625
O       -3.0993201975    0.1103421571   -1.6144439738
O       -2.0356388139    0.5764506304    0.3514105122
H       -0.8941801749    3.4837738762   -1.1002105301
H       -1.9516532063    4.6801315386   -0.3142737170
H       -1.4423663822    4.8945951284   -2.0103267169
H       -4.8347244289    3.7271186820   -2.4913762118
H       -3.6909169796    5.0467723946   -2.7881927764
H       -4.3890436536    4.8324928207   -1.1643613614
H       -2.9627333589   -1.6948990024   -2.5288912256
H       -1.9725513744   -1.5557862644   -1.0465305348
H       -1.4471713728   -0.7507915862   -2.5568700254
H       -0.7330005337    0.7194604024    1.8962289007
H       -1.1794981255    2.2948418954    1.1948821687
H       -0.0481925621    1.2203967182    0.3256550707
H       -4.3036466939    2.0099425714   -1.0810534178
H       -3.3127528129    2.6912010036    0.2147608233
H       -1.4569130610    1.3411309009   -1.4782299034
24   
Generated by ForceBalance from scan.xyz: Frame 6 of 24
C       -1.7568871931    4.1816404016   -1.4623314049
C       -4.0819685430    4.2174709603   -2.0739628176
C       -2.2764709655   -0.9060164620   -2.0448373971
C       -1.0103068716    1.0590302723    1.1058661464
C       -3.2153979876    2.3977516822   -0.7298263184
C       -2.3527131366    1.1361499406   -0.8586214172
N       -2.9282826450    3.3729549148   -1.7816606143
O       -3.0468211082    0.2319904718   -1.6652788808
O       -2.1245688979    0.5218845493    0.4109260810
H       -0.8881232414    3.5412352646   -1.2817483672
H       -1.9038142402    4.8142692666   -0.5646697957
H       -1.5168134579    4.8363845366   -2.3061212397
H       -4.9261558585    3.5943312919   -2.3832914708
H       -3.8404905467    4.8947699738   -2.8998805195
H       -4.4020026427    4.8339358388   -1.2115740623
H       -2.9070320450   -1.5023622849   -2.7073393569
H       -1.9919917287   -1.5026915389   -1.1715935070
H       -1.3702788908   -0.6012179291   -2.5888008249
H       -0.9183297229    0.4999306043    2.0396026301
H       -1.1430915893    2.1244094992    1.3446982047
H       -0.0817353829    0.9444236842    0.5260166332
H       -4.2557678756    2.0730884585   -0.8069122728
H       -3.0835319953    2.8290834421    0.2784052162
H       -1.3744128850    1.3732488703   -1.3137696559
24   
Generated by ForceBalance from scan.xyz: Frame 7 of 24
C       -1.7687838541    4.1877915232   -1.7047422661
C       -4.1531659428    4.1986804407   -2.0209555862
C       -2.1866941824   -0.7789614612   -2.0980190030
C       -1.1175855489    0.8903854043    1.2447613556
C       -3.1258701453    2.4737352392   -0.6679845722
C       -2.3017731298    1.1922668384   -0.8052476143
N       -2.9712965858    3.3693734449   -1.8121582914
O       -2.9440519026    0.3703909534   -1.7303025207
O       -2.2272661407    0.5073638690    0.4470071310
H       -0.8836180930    3.5541619421   -1.5947227218
H       -1.7973258622    4.8845776120   -0.8434417263
H       -1.6407796843    4.7790598346   -2.6170758421
H       -5.0276511922    3.5609153360   -2.1795601885
H       -4.0156978235    4.8127946461   -2.9171432681
H       -4.3668299991    4.8783047743   -1.1729121367
H       -2.7685292259   -1.3067291200   -2.8563206533
H       -2.0190754573   -1.4374032893   -1.2386414024
H       -1.2166103827   -0.4879136561   -2.5278319508
H       -1.1500895741    0.2774745685    2.1483173509
H       -1.1602135874    1.9497630813    1.5365999045
H       -0.1656801222    0.7091608030    0.7229818214
H       -4.1695243597    2.1571496643   -0.5917852697
H       -2.8662445900    2.9689206393    0.2851413008
H       -1.2724840443    1.4094519697   -1.1445043754
24   
Generated by ForceBalance from scan.xyz: Frame 8 of 24
C       -1.8525676335    3.9670153175   -2.0731574949
C       -4.2094004660    4.3219194245   -1.7553356938
C       -1.9275945709   -0.6902574681   -2.0831295233
C       -1.3381445699    0.7549416621    1.3962892474
C       -3.1378184434    2.4818094007   -0.6491274768
C       -2.2672964281    1.2298757071   -0.7591339187
N       -3.1426312076    3.3302029113   -1.8352284718
O       -2.7330735943    0.4544449889   -1.8177518193
O       -2.3698065380    0.4860034912    0.4581996585
H       -1.0826983540    3.2147431099   -2.2654927283
H       -1.5169743330    4.5977884276   -1.2253726013
H       -1.9183683117    4.6023559501   -2.9617103910
H       -5.1749362434    3.8177962143   -1.6490517686
H       -4.2344589920    4.9099872628   -2.6784506425
H       -4.0916898685    5.0237849298   -0.9058857871
H       -2.3509066587   -1.1709998339   -2.9671933209
H       -1.9393938527   -1.3906032564   -1.2409535249
H       -0.8879041039   -0.3982640554   -2.2960303317
H       -1.5048687530    0.0911141986    2.2476614584
H       -1.3602939400    1.7950246726    1.7515256670
H       -0.3439922867    0.5493478408    0.9719252616
H       -4.1567321883    2.1274014871   -0.4670365757
H       -2.8170535661    3.0350033211    0.2561100261
H       -1.2019032944    1.4792968883   -0.9150315637
24   
Generated by ForceBalance from scan.xyz: Frame 9 of 24
C       -1.9673605026    3.7909755713   -2.3552824815
C       -4.1905405501    4.3975445699   -1.6557232671
C       -1.7261173074   -0.5465653752   -2.1239130465
C       -1.4868983571    0.6211994198    1.4540531451
C       -3.1017941105    2.5345676967   -0.6174049667
C       -2.2245092661    1.2834729974   -0.7286397342
N       -3.2444366814    3.3045814363   -1.8461570405
O       -2.5559002451    0.5872418406   -1.8889650097
O       -2.4454531733    0.4607949647    0.4175662522
H       -1.3249519174    2.9479604886   -2.6234217539
H       -1.4248381825    4.4322405468   -1.6316342940
H       -2.1379463178    4.3776747250   -3.2632701702
H       -5.1586671887    3.9968955667   -1.3382136380
H       -4.3368412263    4.9257785659   -2.6034237264
H       -3.8601722851    5.1366580505   -0.8987890578
H       -2.0289638228   -0.9596774388   -3.0880069541
H       -1.8527807437   -1.3031071521   -1.3420744235
H       -0.6658665360   -0.2539477401   -2.1742801504
H       -1.7342430213   -0.1098855408    2.2271059323
H       -1.5199850591    1.6265966983    1.8966789287
H       -0.4659634735    0.4278514422    1.0930010915
H       -4.0949591769    2.1895050489   -0.3122324273
H       -2.6975269813    3.1438612319    0.2165621153
H       -1.1504853032    1.5478613732   -0.7522870774
24   
Generated by ForceBalance from scan.xyz: Frame 10 of 24
C       -2.0819678263    3.7260549727   -2.4913663691
C       -4.1795201745    4.3974565625   -1.5214369462
C       -1.7229911625   -0.4934257384   -2.2168359138
C       -1.7571858923    0.5923294859    1.5412733206
C       -2.9620267806    2.5799017188   -0.5491259410
C       -2.1787382338    1.2619799232   -0.7168137554
N       -3.2796734930    3.2807372393   -1.7859812281
O       -2.4991266175    0.6680878728   -1.9332001852
O       -2.4913041855    0.3629093538    0.3468417250
H       -1.4726365607    2.8626112819   -2.7686694789
H       -1.4611788468    4.4220676111   -1.8919079588
H       -2.3713717959    4.2402919672   -3.4132945485
H       -5.0993695456    4.0299023947   -1.0551720746
H       -4.4483351160    4.8815770197   -2.4658460938
H       -3.7401208149    5.1671264376   -0.8557795410
H       -1.9991861863   -0.8112765384   -3.2241302548
H       -1.9318746338   -1.2978244681   -1.5043255951
H       -0.6470102449   -0.2615975069   -2.1930020887
H       -1.9800238934   -0.2391094847    2.2137920719
H       -2.0474917913    1.5310587123    2.0329512879
H       -0.6739241130    0.6160372981    1.3488807880
H       -3.9067388345    2.3158198687   -0.0622600924
H       -2.3979943151    3.2195626001    0.1596703490
H       -1.0876266640    1.4521567070   -0.6795450893
24   
Generated by ForceBalance from scan.xyz: Frame 11 of 24
C       -2.1913227931    3.7181501055   -2.6089930286
C       -4.1843686371    4.3730142896   -1.4340317809
C       -1.6482848059   -0.4570116720   -2.2383282578
C       -1.9383135643    0.5411149791    1.5637811764
C       -2.7955869613    2.6441366627   -0.5270151691
C       -2.1009660955    1.2679796632   -0.7030804481
N       -3.2827483183    3.2703894582   -1.7484738609
O       -2.3725905700    0.7390973777   -1.9597122915
O       -2.5435664945    0.3462904601    0.2941592971
H       -1.5721355742    2.8650000080   -2.8933189999
H       -1.5487639057    4.4801312399   -2.1235384738
H       -2.6027596304    4.1555322742   -3.5243383572
H       -5.0356998315    4.0036241634   -0.8532893663
H       -4.5700905838    4.8038841839   -2.3636196545
H       -3.6999688591    5.1862896196   -0.8573349403
H       -1.8720418075   -0.7187583169   -3.2744195433
H       -1.9549841268   -1.2725270769   -1.5759490882
H       -0.5648468054   -0.2939673593   -2.1316276745
H       -2.2625301732   -0.2855082744    2.1998472366
H       -2.2478428020    1.4869219902    2.0306082933
H       -0.8399794058    0.5285144969    1.4917258167
H       -3.6618515254    2.4671585745    0.1185695153
H       -2.1067930804    3.3091410423    0.0319041184
H       -1.0048364779    1.3782861908   -0.5825293819
24   
Generated by ForceBalance from scan.xyz: Frame 12 of 24
C       -2.3204726099    3.7275751395   -2.6900130489
C       -4.2047479366    4.3540222541   -1.3373578742
C       -1.5277927006   -0.4080667842   -2.1786872740
C       -2.0910268867    0.5018501198    1.5917789154
C       -2.6435350784    2.7332372370   -0.5056703438
C       -2.0227630273    1.3137925587   -0.6504630878
N       -3.2885002870    3.2763219769   -1.6939688521
O       -2.2114592003    0.8196674918   -1.9364401454
O       -2.6122108322    0.3976653340    0.2761590027
H       -1.6793647999    2.8955924077   -2.9847292677
H       -1.6840934092    4.5559508050   -2.3182899558
H       -2.8502416108    4.0804205151   -3.5807966112
H       -4.9759887847    3.9789513439   -0.6570264225
H       -4.7014201970    4.7225257866   -2.2407628318
H       -3.7033767749    5.2149586831   -0.8513050002
H       -1.6850955328   -0.6459765347   -3.2326286681
H       -1.9256621699   -1.2140327510   -1.5543953439
H       -0.4488887627   -0.3020381340   -1.9883893986
H       -2.5537893950   -0.2933399300    2.1804027812
H       -2.3292356064    1.4683743363    2.0593874839
H       -0.9983167632    0.3681787290    1.6038238307
H       -3.4052200165    2.6527188976    0.2749964167
H       -1.8620778280    3.4181374441   -0.1196395800
H       -0.9395385602    1.3551046133   -0.4236486020
24   
Generated by ForceBalance from scan.xyz: Frame 13 of 24
C       -2.4557814807    3.7332607653   -2.7671941546
C       -4.2019125004    4.3609198064   -1.2406499889
C       -1.4336157790   -0.3635815250   -2.1213072414
C       -2.2673672319    0.4874329782    1.5755618841
C       -2.4929705427    2.8301569941   -0.5176153557
C       -1.9575102484    1.3760675633   -0.6196468462
N       -3.2861826294    3.3002052060   -1.6465809830
O       -2.0569786278    0.9038557530   -1.9243030952
O       -2.6974164097    0.4875183926    0.2246651222
H       -1.8101380418    2.9149144963   -3.0865178448
H       -1.8246812280    4.6083075985   -2.5116142527
H       -3.0971240547    4.0119747510   -3.6096982639
H       -4.8793654091    3.9931645354   -0.4634965827
H       -4.8087335990    4.6654360552   -2.0996074177
H       -3.6870769326    5.2633021348   -0.8540889739
H       -1.5112298309   -0.5835298968   -3.1879736648
H       -1.9374249491   -1.1456656067   -1.5451206173
H       -0.3714484502   -0.3293305966   -1.8353950514
H       -2.8530729723   -0.2742768366    2.0950512302
H       -2.4373022018    1.4558422819    2.0694241406
H       -1.1983674502    0.2374217488    1.6591514609
H       -3.1198001729    2.8624892008    0.3771972439
H       -1.6353819414    3.5050604603   -0.3251827114
H       -0.9030160761    1.3480144353   -0.2834176178
24   
Generated by ForceBalance from scan.xyz: Frame 14 of 24
C       -2.5856672980    3.6903861516   -2.8379518189
C       -4.1567428354    4.3313798498   -1.1348318189
C       -1.3206341664   -0.3702276706   -2.1125070014
C       -2.4371850420    0.4544581654    1.4916160018
C       -2.3304942009    2.8608727661   -0.5712660505
C       -1.8765478026    1.3859927172   -0.6377646549
N       -3.2628935761    3.2811433879   -1.6103917798
O       -1.8737094877    0.9349078117   -1.9549018450
O       -2.7489424959    0.5330009759    0.1115599945
H       -1.9568839516    2.8783154402   -3.2020143763
H       -1.9564050358    4.5914807066   -2.6921586129
H       -3.3322618491    3.9187570580   -3.6056312053
H       -4.7273691215    3.9744932764   -0.2716393178
H       -4.8696381568    4.5877686675   -1.9253414781
H       -3.6286116479    5.2611504588   -0.8427552408
H       -1.3014657086   -0.5705797238   -3.1856638866
H       -1.9342196446   -1.1219857245   -1.6068604758
H       -0.2941026751   -0.4137107744   -1.7186054176
H       -3.1218121250   -0.2749076579    1.9304218524
H       -2.5746450967    1.4160520134    2.0086835165
H       -1.4016173983    0.1176338933    1.6544252012
H       -2.8045313544    2.9929350037    0.4048287766
H       -1.4260497174    3.5004961975   -0.5660469841
H       -0.8640573192    1.2995979043   -0.1972307503
24   
Generated by ForceBalance from scan.xyz: Frame 15 of 24
C       -2.7437810305    3.6309955109   -2.8664694426
C       -4.0956168381    4.3403615393   -1.0073094014
C       -1.1806176576   -0.3571197764   -2.0793321174
C       -2.6233224062    0.4923112069    1.4050540378
C       -2.1989024440    2.8971657833   -0.6149295402
C       -1.8049822332    1.4123596597   -0.6435696578
N       -3.2559782222    3.2756596325   -1.5452161073
O       -1.6764328842    0.9751899662   -1.9611942147
O       -2.7789110065    0.5886010318    0.0002669328
H       -2.1596653294    2.8051848933   -3.2710203272
H       -2.1077728358    4.5386672333   -2.8427818555
H       -3.5845208742    3.8239933744   -3.5409218119
H       -4.5491685603    4.0190882287   -0.0642897190
H       -4.9058159457    4.5557303763   -1.7116329127
H       -3.5468324597    5.2859958217   -0.8254358809
H       -1.0447350319   -0.5435850556   -3.1465370313
H       -1.8892864318   -1.0799171055   -1.6641390441
H       -0.2118947477   -0.4625897955   -1.5683222294
H       -3.3669124278   -0.2261933484    1.7574111524
H       -2.7988811781    1.4520157766    1.9135108796
H       -1.6194371716    0.1319643028    1.6785058821
H       -2.5271618064    3.1092474892    0.4067440586
H       -1.2822885352    3.4971822901   -0.7750106257
H       -0.8448606297    1.2911244470   -0.1028504131
24   
Generated by ForceBalance from scan.xyz: Frame 16 of 24
C       -2.9941585192    3.4270431702   -2.8191782594
C       -3.9241693745    4.4285099071   -0.8426263545
C       -0.9370408342   -0.3332912800   -2.0838294710
C       -2.8846210551    0.5581072124    1.2562534660
C       -2.1016862260    2.8712252463   -0.6201618783
C       -1.7185772548    1.3859706399   -0.6585488541
N       -3.2775284158    3.2434602863   -1.3964243040
O       -1.4487149874    0.9942494241   -1.9722214908
O       -2.7322519094    0.5265834771   -0.1517154163
H       -2.5671551043    2.5157426218   -3.2344191067
H       -2.2896733019    4.2623372640   -3.0039689316
H       -3.9283339817    3.6487357518   -3.3455589505
H       -4.2156772832    4.2472313933    0.1972093292
H       -4.8337282215    4.6467737710   -1.4115630578
H       -3.2836682343    5.3324645739   -0.8697806754
H       -0.6663495052   -0.4731969104   -3.1323819646
H       -1.6877420264   -1.0734013067   -1.7917022401
H       -0.0402844246   -0.4601752720   -1.4593349719
H       -3.5473906197   -0.2689342603    1.5210488054
H       -3.3404778406    1.4958042050    1.6031824999
H       -1.9211203496    0.4217462742    1.7720714032
H       -2.2876208889    3.1163624856    0.4299191219
H       -1.2042189836    3.4489726355   -0.9164498639
H       -0.8112169161    1.2568215322   -0.0321645846
24   
Generated by ForceBalance from scan.xyz: Frame 17 of 24
C       -3.3597801432    3.0521967105   -2.5908887086
C       -3.6565060704    4.5910975454   -0.7647255786
C       -0.6402217718   -0.1928092225   -2.1332499778
C       -3.1756389881    0.6025125659    0.9670171290
C       -2.0213255656    2.8607064299   -0.5477431698
C       -1.6188919923    1.3839514857   -0.6648355986
N       -3.3015026316    3.2264068590   -1.1399933161
O       -1.2032338201    1.1085586042   -1.9724816977
O       -2.6623341019    0.4732887173   -0.3501816309
H       -3.1973079026    2.0074763367   -2.8506212370
H       -2.6049257001    3.6617409803   -3.1229687154
H       -4.3526263434    3.3520634990   -2.9416580117
H       -3.6904233051    4.6845460813    0.3262850242
H       -4.6505513910    4.8319433498   -1.1547410928
H       -2.9462871833    5.3483798208   -1.1512018936
H       -0.2454169094   -0.2355335711   -3.1504190262
H       -1.3945013700   -0.9731595722   -1.9939679455
H        0.1813157150   -0.3537975555   -1.4195817986
H       -3.8310276978   -0.2553779203    1.1336470234
H       -3.7581811655    1.5249582540    1.0796928509
H       -2.3705970702    0.5833904322    1.7183912597
H       -2.0665447510    3.1031747704    0.5192361349
H       -1.1774457548    3.4449504775   -0.9660460628
H       -0.7772532038    1.2102405627    0.0372050749
24   
Generated by ForceBalance from scan.xyz: Frame 18 of 24
C       -3.5182082491    2.9591607844   -2.4648678520
C       -3.5949056659    4.6409923747   -0.7422907016
C       -0.5348995412   -0.1800198822   -2.0815642653
C       -3.2763776622    0.6015341970    0.8000972298
C       -1.9535273766    2.9025112277   -0.5980621873
C       -1.6027401820    1.4040787117   -0.6829937782
N       -3.2975224850    3.2457768115   -1.0471314311
O       -1.0431913274    1.1455896010   -1.9418039258
O       -2.7080464009    0.5369234845   -0.5016412960
H       -3.3571368776    1.8992073787   -2.6594300685
H       -2.8465860455    3.5396616880   -3.1248965549
H       -4.5531926551    3.2081080294   -2.7214366745
H       -3.4967508521    4.8188914161    0.3342904138
H       -4.6269820591    4.8664695720   -1.0295016983
H       -2.9310434038    5.3539522293   -1.2691087470
H       -0.0251444908   -0.2159641770   -3.0465642563
H       -1.3393891783   -0.9214769608   -2.0584198520
H        0.1865912551   -0.4075882865   -1.2826468303
H       -4.0203937454   -0.1960134792    0.8569339088
H       -3.7675227271    1.5667793504    0.9688076259
H       -2.5141442109    0.4320824504    1.5766753254
H       -1.8722590082    3.2062186453    0.4516353554
H       -1.1627143191    3.4446130743   -1.1499117071
H       -0.8508739061    1.1781940428    0.1007670221
24   
Generated by ForceBalance from scan.xyz: Frame 19 of 24
C       -3.6516071826    2.9637486908   -2.3756422226
C       -3.5505796414    4.6690310456   -0.6794461862
C       -0.4117860677   -0.2227029339   -1.9593083707
C       -3.3249045002    0.5776231967    0.6657730092
C       -1.8920737923    2.9333002749   -0.7100951761
C       -1.5825875502    1.4144408970   -0.7113414144
N       -3.2838348245    3.2687455117   -0.9918579939
O       -0.8977617930    1.1172002075   -1.8978628881
O       -2.7235070266    0.5808704490   -0.6237580699
H       -3.4793216614    1.9066589740   -2.5790142466
H       -3.0738048224    3.5609531828   -3.1062257986
H       -4.7157546388    3.1765934488   -2.5220593230
H       -3.3359675063    4.8650619400    0.3766682521
H       -4.6089592271    4.8867245254   -0.8558849848
H       -2.9521817653    5.3741684523   -1.2883073097
H        0.1917328606   -0.2919836546   -2.8666821083
H       -1.2330531451   -0.9445300964   -2.0033066918
H        0.2192075664   -0.4492666427   -1.0868353327
H       -4.1231720952   -0.1673041611    0.6369518655
H       -3.7522090485    1.5581532097    0.9034909330
H       -2.5969411176    0.2901959889    1.4405077697
H       -1.6583868848    3.3237065493    0.2862197688
H       -1.1868859021    3.4077919332   -1.4157694381
H       -0.9245887861    1.1812197235    0.1497525189
24   
Generated by ForceBalance from scan.xyz: Frame 20 of 24
C       -3.8069726131    2.9961617928   -2.2829832293
C       -3.4844380569    4.7039483031   -0.6204035376
C       -0.2747632402   -0.2589585012   -1.7967149327
C       -3.3759663606    0.5221742367    0.5111647569
C       -1.8559362367    2.9486185943   -0.8531456524
C       -1.5710308060    1.4230754410   -0.7492773409
N       -3.2699134053    3.2991384117   -0.9548842699
O       -0.7714206308    1.0775950662   -1.8473189915
O       -2.7260833725    0.6021490478   -0.7531927427
H       -3.6564857236    1.9403647073   -2.5089518786
H       -3.3265622212    3.6004216006   -3.0760950846
H       -4.8821073397    3.2040917559   -2.2969738649
H       -3.1466123332    4.9023567739    0.4022765930
H       -4.5540757986    4.9316024022   -0.6735088096
H       -2.9552332380    5.4002019816   -1.2993170542
H        0.4006280531   -0.3713626230   -2.6473103118
H       -1.0868565369   -0.9890014012   -1.8685109163
H        0.2846997555   -0.4329598577   -0.8654009948
H       -4.1913071001   -0.1959561587    0.3979344470
H       -3.7846538958    1.4945111186    0.8065532686
H       -2.6843750807    0.1572923386    1.2864987732
H       -1.4589869798    3.4257092420    0.0483697465
H       -1.2688240286    3.3333198432   -1.7052193721
H       -1.0149366993    1.2125352912    0.1849056782
24   
Generated by ForceBalance from scan.xyz: Frame 21 of 24
C       -3.9614057449    3.0340106909   -2.1715360501
C       -3.3905751013    4.7315703847   -0.5678999239
C       -0.1527357119   -0.2851277591   -1.6158405619
C       -3.4297021735    0.4472394185    0.3435136673
C       -1.8400761670    2.9370160341   -1.0082126483
C       -1.5702095816    1.4227465734   -0.7912973761
N       -3.2476439544    3.3230776806   -0.9262433638
O       -0.6661692146    1.0346777479   -1.7888399164
O       -2.7222092518    0.5982367417   -0.8837501385
H       -3.8570235655    1.9776479363   -2.4191839380
H       -3.5815920965    3.6362664578   -3.0191406373
H       -5.0257205111    3.2579575559   -2.0425490029
H       -2.9230742733    4.9215735297    0.4037884305
H       -4.4537100620    4.9802526919   -0.4855359527
H       -2.9386232822    5.4185799813   -1.3090469417
H        0.5816076772   -0.4394739789   -2.4090185378
H       -0.9474848937   -1.0334358541   -1.6962767730
H        0.3434722169   -0.3879255138   -0.6393063909
H       -4.2335818335   -0.2678425417    0.1533183411
H       -3.8556850864    1.4003193430    0.6742839640
H       -2.7722895153    0.0430763149    1.1288063662
H       -1.2861363346    3.4852506452   -0.2405113169
H       -1.3967214951    3.2136623030   -1.9800823833
H       -1.1205480723    1.2553596860    0.2056051721
24   
Generated by ForceBalance from scan.xyz: Frame 22 of 24
C       -4.1004340210    3.0735849494   -2.0313621959
C       -3.2817568787    4.7584064215   -0.5247172497
C       -0.0461335450   -0.2749282482   -1.4263172534
C       -3.4694184525    0.3696506401    0.1729494690
C       -1.8436555943    2.9185528368   -1.1569254614
C       -1.5741130081    1.4325976001   -0.8320564249
N       -3.2183568121    3.3471515140   -0.8955635864
O       -0.5697514560    1.0194761119   -1.7173417800
O       -2.7027477463    0.5858587095   -1.0087442013
H       -4.0473392054    2.0169092872   -2.2936675246
H       -3.8301370347    3.6714560986   -2.9229461172
H       -5.1333011210    3.3153946762   -1.7585778289
H       -2.6855530604    4.9376137154    0.3757331963
H       -4.3186728971    5.0307170321   -0.3018176683
H       -2.9179670326    5.4355183391   -1.3212874883
H        0.7501950502   -0.4593401302   -2.1502250657
H       -0.8188243170   -1.0444449636   -1.5235614701
H        0.3747929229   -0.3096085667   -0.4104516262
H       -4.2408369772   -0.3595409622   -0.0863502615
H       -3.9376525928    1.2973256129    0.5186347146
H       -2.8438028284   -0.0459295102    0.9775164770
H       -1.1599671126    3.5144587496   -0.5453820455
H       -1.5576611915    3.0866191928   -2.2088462937
H       -1.2321953121    1.3236951008    0.2137193712
24   
Generated by ForceBalance from scan.xyz: Frame 23 of 24
C       -4.2158295485    3.1185858757   -1.8884990905
C       -3.1659440316    4.7844453430   -0.5075210451
C        0.0252572372   -0.2444671267   -1.2464202831
C       -3.4811703836    0.2741311277    0.0031508839
C       -1.8679192118    2.8962255839   -1.3072846817
C       -1.5886475635    1.4478580964   -0.8836877115
N       -3.1860718926    3.3725721134   -0.8801905659
O       -0.4852345653    1.0272160982   -1.6391736427
O       -2.6799379157    0.5699712496   -1.1377345400
H       -4.2144065016    2.0626784674   -2.1604157183
H       -4.0582881369    3.7146180025   -2.8078085158
H       -5.1996040886    3.3749927648   -1.4807098544
H       -2.4522720106    4.9480082968    0.3060990013
H       -4.1573187440    5.0815283377   -0.1495527228
H       -2.8945664870    5.4536546160   -1.3463526819
H        0.8951053297   -0.4410564298   -1.8764301083
H       -0.7213316464   -1.0319749922   -1.3937637079
H        0.3390797991   -0.2343019328   -0.1918322559
H       -4.2222227899   -0.4613264119   -0.3194672982
H       -3.9881080852    1.1693584539    0.3797356054
H       -2.8744090556   -0.1632919146    0.8099023875
H       -1.0897333441    3.5185828588   -0.8558463337
H       -1.7374873473    2.9643659917   -2.3995769671
H       -1.3577564251    1.4051114271    0.1960062824
24   
Generated by ForceBalance from scan.xyz: Frame 24 of 24
C       -4.3035964116    3.1672350753   -1.7580209336
C       -3.0477775533    4.8281156961   -0.5522768249
C        0.0615843122   -0.1970959054   -1.0777424579
C       -3.4500223163    0.1318431689   -0.1703778963
C       -1.9086537914    2.8766056746   -1.4530827562
C       -1.6148100691    1.4674828530   -0.9417206428
N       -3.1524087105    3.4114447415   -0.8888547069
O       -0.4126519230    1.0627308918   -1.5434652511
O       -2.6538634704    0.5525365079   -1.2746658093
H       -4.3568574575    2.1081587910   -2.0134586562
H       -4.2508807196    3.7457965769   -2.7002150522
H       -5.2248426617    3.4494483074   -1.2368406713
H       -2.2344345681    4.9849235150    0.1631151431
H       -3.9783611687    5.1605500640   -0.0801374430
H       -2.8649150328    5.4742619643   -1.4321234681
H        1.0156527023   -0.3780043341   -1.5770174913
H       -0.6403100597   -1.0006489997   -1.3259449974
H        0.2225440274   -0.1798267908    0.0109450896
H       -4.1632845955   -0.5985292178   -0.5600775818
H       -3.9940906852    0.9722843611    0.2765649820
H       -2.8358446255   -0.3495289069    0.6043566102
H       -1.0672265732    3.5072059290   -1.1514863050
H       -1.9194139072    2.8576738911   -2.5541035939
H       -1.5051147197    1.4876562127    0.1564892173
