23   

C       -4.8394600097   -6.8729071297   -2.0221284545
C        1.2347101559   -4.8207366257    3.1736933979
C       -3.3355728355   -4.8946904544   -1.4716640763
C        1.0757266787   -5.3672091555    1.9398702013
C       -3.7725523389   -6.5056215262    0.1796505473
C       -4.0130480002   -6.1339506771   -1.1173617279
C       -2.5758945630   -4.3762083332   -0.4440670977
C        0.6971210131   -3.5088216713    3.4436244066
C       -0.1413604203   -3.3644611487    1.3093938955
C       -1.8558197225   -3.1092718631   -0.4969829350
C       -0.8855133087   -2.6259284124    0.3053439557
N       -5.5075031438   -7.4769052594   -2.7604420919
N        0.0167430289   -2.8104621082    2.4726301690
N        0.3830436120   -4.6182217467    0.9895586253
O        0.8350721493   -3.0208989467    4.5519775686
S       -2.7150895684   -5.3748436957    1.0131887884
H        1.7543464526   -5.3328156293    3.9710964805
H       -3.4334601084   -4.4289965435   -2.4468830880
H        1.4780529099   -6.3534877739    1.7199026602
H       -4.1867343672   -7.3928051887    0.6451368361
H       -2.1559847519   -2.4459982615   -1.3020406532
H       -0.6957865759   -1.5600824463    0.2880651849
H        0.2106834769   -4.9592856882    0.0510007859
23   

C       -4.5232503053   -7.0160960305   -1.9709497876
C        1.3106820260   -4.8953976087    3.0976466520
C       -3.1738407547   -4.9317808196   -1.4118557403
C        0.9598311703   -5.4544655920    1.9101344358
C       -3.8241720516   -6.3829762573    0.3167848482
C       -3.8679168723   -6.1551278987   -1.0345415329
C       -2.6029852662   -4.2822133003   -0.3396613593
C        0.9389689635   -3.5288674914    3.3759251833
C       -0.1127615550   -3.3523558422    1.3402666532
C       -1.8925396744   -3.0039293597   -0.3854846690
C       -0.8861604128   -2.5637883956    0.3957690864
N       -5.0509871794   -7.7195750921   -2.7342842987
N        0.2283233243   -2.7886341733    2.4588756888
N        0.2424538585   -4.6628341764    1.0146917640
O        1.2457939982   -3.0300286417    4.4448608003
S       -2.9386796321   -5.1312046851    1.1783009129
H        1.8635896147   -5.4375059253    3.8516124567
H       -3.1236313236   -4.5723842544   -2.4346219094
H        1.2343917559   -6.4822829002    1.6838111083
H       -4.2840655540   -7.2346853050    0.8052391776
H       -2.2063291482   -2.3249117716   -1.1720695075
H       -0.6711306334   -1.5024918689    0.3998553454
H       -0.0755684194   -5.0106364100    0.1172591063
23   

C       -4.2291394738   -7.1186684603   -2.0247244853
C        1.2507894316   -5.1087408661    3.0574333674
C       -3.0406647212   -4.9613266818   -1.3832767003
C        0.7230620953   -5.6367094940    1.9224795995
C       -3.9511533415   -6.3217288088    0.3016891888
C       -3.7646090994   -6.1800822944   -1.0496150654
C       -2.6858893365   -4.2274822960   -0.2751960064
C        1.0477965377   -3.7101539749    3.3499500620
C       -0.1839615773   -3.4383995069    1.4278634562
C       -1.9832621180   -2.9375394695   -0.2452337877
C       -0.9595047789   -2.5737040771    0.5508525503
N       -4.6005959167   -7.8855377778   -2.8183432695
N        0.3244712350   -2.9069086181    2.4979274412
N       -0.0005764329   -4.7816375452    1.0932387784
O        1.5132723459   -3.2379589654    4.3727168533
S       -3.2548784187   -4.9909237749    1.2172852062
H        1.8231975523   -5.6993088341    3.7585602147
H       -2.8142395879   -4.6664150207   -2.4030201508
H        0.8677903565   -6.6883808266    1.6856866932
H       -4.4714470358   -7.1555226417    0.7597344968
H       -2.2993127230   -2.2077848922   -0.9840910527
H       -0.7110568180   -1.5212002794    0.6094699708
H       -0.4473397286   -5.1009943814    0.2407698215
23   

C       -3.9344789214   -7.2299991315   -2.0035042025
C        1.2296301675   -5.2088096390    2.9804533491
C       -2.8995899590   -5.0004519707   -1.3428390895
C        0.5500972381   -5.7241677433    1.9233159441
C       -4.0444487614   -6.2645464007    0.2727594080
C       -3.6475656982   -6.2124667624   -1.0392078016
C       -2.7462589441   -4.1799471092   -0.2514413885
C        1.1646039740   -3.7910170956    3.2415441290
C       -0.2256916056   -3.4730938781    1.4371144063
C       -2.0581094473   -2.8783394278   -0.1748922471
C       -1.0065030573   -2.5665569438    0.6048532534
N       -4.1607196700   -8.0612870497   -2.7867705774
N        0.4258428088   -2.9558718128    2.4344403043
N       -0.1857539133   -4.8370648116    1.1400770478
O        1.7652455170   -3.3291498592    4.1963617114
S       -3.5257724392   -4.8535270699    1.1864922518
H        1.8237185179   -5.8235308087    3.6416108253
H       -2.5106779828   -4.7733365472   -2.3306463393
H        0.5886854159   -6.7901342078    1.7105354206
H       -4.6171265474   -7.0786969190    0.7030327083
H       -2.4054347298   -2.1092098208   -0.8576988093
H       -0.7236462996   -1.5235821423    0.6780847679
H       -0.7384798879   -5.1426429488    0.3462813052
23   

C       -3.6713902510   -7.2722864459   -1.9718571911
C        1.2151574176   -5.2215334877    2.9359385998
C       -2.7765390183   -4.9948424775   -1.2708717584
C        0.3888269803   -5.7329087214    1.9870784826
C       -4.1778956980   -6.1833863257    0.1923769628
C       -3.5603306323   -6.1986238312   -1.0324533072
C       -2.8224693223   -4.1126633279   -0.2195892088
C        1.2739945226   -3.7927263845    3.1281931827
C       -0.2797246291   -3.4547873105    1.4649257209
C       -2.1545817800   -2.8016113928   -0.0838936948
C       -1.0762537401   -2.5252193828    0.6711194538
N       -3.7548745900   -8.1495260640   -2.7328206374
N        0.5098179689   -2.9433092399    2.3607054882
N       -0.3690069997   -4.8307079436    1.2430364507
O        2.0072139290   -3.3328160398    3.9865294402
S       -3.8318802852   -4.7161109286    1.0996089066
H        1.8375218879   -5.8473468385    3.5595879654
H       -2.2197083813   -4.8174486884   -2.1860898961
H        0.3326294971   -6.8072208696    1.8266691338
H       -4.8128004919   -6.9806475487    0.5630559618
H       -2.5579200003   -1.9903887159   -0.6820148231
H       -0.7698039735   -1.4889637327    0.7465487902
H       -1.0173366481   -5.1304055441    0.5224594582
23   

C       -3.4690759114   -7.3208124675   -1.9296750148
C        1.2385734396   -5.2508995656    2.8739579930
C       -2.6725533988   -5.0250371743   -1.1718906399
C        0.2733893526   -5.7558816644    2.0627010572
C       -4.3518876842   -6.1233438330    0.0484818949
C       -3.5134984576   -6.2055589219   -1.0342353796
C       -2.8957445726   -4.0950196936   -0.1864710050
C        1.4070401818   -3.8212414153    2.9683982794
C       -0.3105422934   -3.4698113743    1.4769766807
C       -2.2448063262   -2.7825088333    0.0095313721
C       -1.1350841041   -2.5282283785    0.7258710696
N       -3.4277080000   -8.2322432975   -2.6529216010
N        0.6095675735   -2.9655704921    2.2431972366
N       -0.5131036705   -4.8463506478    1.3580730427
O        2.2661679994   -3.3655072190    3.7033595805
S       -4.1514638055   -4.6191689238    0.9393801938
H        1.8930342260   -5.8823763236    3.4577565749
H       -1.9514430866   -4.8955484695   -1.9737038995
H        0.1331850025   -6.8310792054    1.9772469985
H       -5.0635031462   -6.8933923340    0.3257305392
H       -2.7240457581   -1.9340917435   -0.4691256931
H       -0.8132419924   -1.4960667404    0.7944448720
H       -1.2540425539   -5.1412509423    0.7308863941
23   

C       -3.7541288427   -7.7370831719   -0.6879526535
C        1.0828023099   -4.9745560632    3.3243994238
C       -2.5894590470   -5.4736829018   -0.6759292652
C       -0.0762186167   -5.4522165704    2.8014104844
C       -4.7056441389   -5.6862926550    0.3193679946
C       -3.7061378852   -6.3480469614   -0.3475892250
C       -2.7725535376   -4.1859538662   -0.2321593216
C        1.6355127504   -3.7441093133    2.8132588204
C       -0.1001671856   -3.5277919521    1.3167240070
C       -1.8844894846   -3.0202834267   -0.3997262297
C       -0.7333249351   -2.7612427496    0.2483604353
N       -3.7917827827   -8.8692786577   -0.9566801863
N        1.0077514663   -3.0534035795    1.8021137743
N       -0.6752968570   -4.7108777052    1.7843200189
O        2.6723704112   -3.3099865687    3.2849290000
S       -4.3291250513   -3.9867280552    0.5772593367
H        1.6143176917   -5.4835337724    4.1158227580
H       -1.7114861701   -5.8052333189   -1.2230510167
H       -0.5064949277   -6.3793610182    3.1732452313
H       -5.6279875519   -6.1524044130    0.6483815762
H       -2.2323792968   -2.2558703369   -1.0876906683
H       -0.1993745794   -1.8613161703   -0.0323593407
H       -1.5372104821   -5.0024342890    1.3356551860
23   

C       -3.6022619411   -7.7546229136   -0.5846508485
C        1.0917192697   -5.0331873285    3.2831225316
C       -2.5249155558   -5.4493830146   -0.5191816932
C       -0.1558831783   -5.4022321311    2.8924817174
C       -4.7898112769   -5.6795370629    0.0546391320
C       -3.6603724985   -6.3442828829   -0.3498942117
C       -2.8244022789   -4.1413877275   -0.2150606391
C        1.7081487639   -3.8760617262    2.6817341874
C       -0.1388470587   -3.5204631300    1.3549124868
C       -1.9631928950   -2.9534870915   -0.3040592833
C       -0.7985019569   -2.7169289226    0.3317428923
N       -3.5561896457   -8.9037496621   -0.7661294088
N        1.0520475635   -3.1475268564    1.7163083650
N       -0.7792207441   -4.6262324398    1.9163826917
O        2.8257537647   -3.5396889940    3.0335848254
S       -4.5173967110   -3.9520938065    0.2504342859
H        1.6482284997   -5.5762459067    4.0336839706
H       -1.5490278492   -5.7813841453   -0.8625277725
H       -0.6352076081   -6.2728893683    3.3343295786
H       -5.7461081232   -6.1595737714    0.2312268215
H       -2.3509574389   -2.1360000946   -0.9040781432
H       -0.2625365266   -1.8155263930    0.0597264673
H       -1.7043983258   -4.8416992056    1.5602424095
23   

C       -3.4684954998   -7.7665267906   -0.4731488955
C        1.0846932782   -5.0784508879    3.2439231990
C       -2.4823082770   -5.4226054995   -0.3641021240
C       -0.2248930383   -5.3363868080    2.9909567868
C       -4.8080039519   -5.7024322141   -0.2111151242
C       -3.6060563179   -6.3475069353   -0.3507939454
C       -2.8655498282   -4.1085318843   -0.2097524275
C        1.7397069240   -3.9961140919    2.5508794184
C       -0.1906007652   -3.5003928973    1.4002700395
C       -2.0469325253   -2.8938293911   -0.2077348503
C       -0.8758102927   -2.6647782064    0.4223335443
N       -3.3605129539   -8.9224012961   -0.5622689180
N        1.0584869450   -3.2302520759    1.6329169847
N       -0.8712205972   -4.5250253632    2.0593942962
O        2.9133790849   -3.7592061812    2.7794882477
S       -4.6211746263   -3.9574602900   -0.0846854963
H        1.6631034909   -5.6566653964    3.9504129468
H       -1.4520049837   -5.7405465240   -0.4983027817
H       -0.7338364437   -6.1494454192    3.5038021010
H       -5.7677365420   -6.2065561294   -0.1842161550
H       -2.4662633029   -2.0462657181   -0.7410785063
H       -0.3449523030   -1.7567203410    0.1630144800
H       -1.8412745056   -4.6649841082    1.7977443663
23   

C       -3.3754980465   -7.7452532673   -0.3894049371
C        1.0739035302   -5.1361018469    3.2275889939
C       -2.4412403317   -5.3836753447   -0.2239680427
C       -0.2723238575   -5.2706358287    3.1038689862
C       -4.7521023616   -5.6922722740   -0.4968068255
C       -3.5419408312   -6.3241526375   -0.3731243707
C       -2.8520739020   -4.0671543493   -0.2180395087
C        1.7600282682   -4.1328718198    2.4503542060
C       -0.2129376075   -3.4798262018    1.4642232600
C       -2.0786683971   -2.8324699897   -0.1094899704
C       -0.9083155720   -2.6098224394    0.5268110390
N       -3.2465310147   -8.9024685915   -0.3920234729
N        1.0713636193   -3.3234088543    1.5763192462
N       -0.9244256635   -4.4166665825    2.2152769806
O        2.9667963228   -4.0052802671    2.5651959195
S       -4.6019016891   -3.9408552482   -0.4313915658
H        1.6592626261   -5.7561407245    3.8916669033
H       -1.4040762292   -5.6977539451   -0.1480383344
H       -0.8047445070   -6.0224353531    3.6822434748
H       -5.6967213681   -6.2094688799   -0.6230846994
H       -2.5167037028   -1.9643473672   -0.5923011237
H       -0.3787222470   -1.6955875137    0.2880235092
H       -1.9227880360   -4.4703868414    2.0452277691
23   

C       -3.3553982036   -7.7594187514   -0.2890118185
C        1.1117615642   -5.1252538777    3.1653728813
C       -2.4615479542   -5.3848054074   -0.0935134659
C       -0.2457495483   -5.1815371586    3.1770965939
C       -4.6910597073   -5.7275296107   -0.7428093523
C       -3.5209120775   -6.3410059051   -0.3796789973
C       -2.8626177378   -4.0713657039   -0.2335140624
C        1.7749036017   -4.1828435509    2.2971310749
C       -0.2440007979   -3.4431217498    1.4822014231
C       -2.1511503952   -2.8123542944   -0.0390065839
C       -0.9804318030   -2.5647851851    0.5881849028
N       -3.2286699026   -8.9138730620   -0.2047140075
N        1.0514478014   -3.3577825175    1.4670040582
N       -0.9325717191   -4.3119307511    2.3304860246
O        2.9922650172   -4.1221577318    2.2944282632
S       -4.5518218523   -3.9746427215   -0.7472326355
H        1.7231872353   -5.7634141022    3.7875308208
H       -1.4560141911   -5.6950111572    0.1730849279
H       -0.7603983403   -5.8858981953    3.8269150427
H       -5.6006245136   -6.2585177088   -1.0002706805
H       -2.6229816162   -1.9418890898   -0.4842504590
H       -0.4781082004   -1.6328128959    0.3599962269
H       -1.9443946251   -4.3044144439    2.2664389376
23   

C       -4.2481266534   -7.2416910174    1.0215342496
C        1.1292307707   -4.9929087339    3.1394694052
C       -2.8716326808   -5.1600315869    0.5250979608
C        0.8215592149   -5.5729140334    1.9497472192
C       -4.6220757561   -5.7571320648   -0.9207048318
C       -3.9436657136   -6.0962148616    0.2198171537
C       -2.7604361569   -4.1385743421   -0.3980093149
C        0.8120137229   -3.6016144639    3.3538790302
C       -0.1227808260   -3.4462111798    1.2599334237
C       -1.8372076573   -3.0165727477   -0.5262728872
C       -0.7948012423   -2.6493256930    0.2501564303
N       -4.4903723305   -8.1817707068    1.6647031713
N        0.1811591802   -2.8632935677    2.3792036178
N        0.1988613616   -4.7772610368    0.9882674607
O        1.1023346559   -3.0759109924    4.4145052660
S       -3.9857466653   -4.2969275937   -1.6640926502
H        1.6100510377   -5.5356222445    3.9410408740
H       -2.2605945501   -5.2635953458    1.4145427151
H        1.0575061715   -6.6199260408    1.7725644488
H       -5.4568205321   -6.3209676172   -1.3214966390
H       -2.0578872406   -2.3307054106   -1.3382846237
H       -0.4642313148   -1.6196999413    0.1946447672
H       -0.0667397885   -5.1356243899    0.0780993969
23   

C       -4.3451895779   -7.2069803023    1.0164139922
C        1.1405258440   -5.1468827779    3.1486253443
C       -2.9887915372   -5.0920913774    0.6121712844
C        0.6661912820   -5.7006903124    2.0021250840
C       -4.4345716684   -5.8724217179   -1.0643299768
C       -3.9517303292   -6.1016171190    0.1973458390
C       -2.7571932226   -4.1329223614   -0.3532039301
C        0.9671052986   -3.7329712609    3.3777201506
C       -0.1510199693   -3.5001630770    1.3819830709
C       -1.8789630934   -2.9677805115   -0.3733213505
C       -0.8476421005   -2.6432061208    0.4367715884
N       -4.6590731185   -8.1146818561    1.6748095702
N        0.3098101880   -2.9447568656    2.4612770117
N        0.0234982014   -4.8556613258    1.0979153599
O        1.4028898166   -3.2320621203    4.3998964612
S       -3.7386640658   -4.4315157145   -1.7934054991
H        1.6496525043   -5.7275634610    3.9047803764
H       -2.5324825156   -5.0951194402    1.5971445429
H        0.7900948624   -6.7649503007    1.8143829566
H       -5.1636199493   -6.5039290102   -1.5595374478
H       -2.0998843848   -2.2368309005   -1.1449974761
H       -0.5279482394   -1.6084942298    0.4490001626
H       -0.3740964100   -5.1938026959    0.2287031239
23   

C       -4.4305914860   -7.1529952337    1.0102603097
C        1.1752620654   -5.1973313781    3.1117400097
C       -3.0935323135   -5.0179580772    0.6481615753
C        0.5607146231   -5.7427064371    2.0297853082
C       -4.2294016475   -5.9874382379   -1.1628367764
C       -3.9456929414   -6.0982333645    0.1736929514
C       -2.7394096104   -4.1317516525   -0.3474070289
C        1.1098965631   -3.7711949316    3.3195838766
C       -0.1702494088   -3.5063949936    1.4268003492
C       -1.9239268504   -2.9207490960   -0.2930981808
C       -0.8934295161   -2.6200102662    0.5264911410
N       -4.8184684548   -8.0195160674    1.6844110680
N        0.4213608195   -2.9610022166    2.4461167320
N       -0.1112858695   -4.8766453119    1.1681342887
O        1.6669044922   -3.2786832043    4.2854676779
S       -3.4717717939   -4.5776497895   -1.8927720694
H        1.7175374301   -5.7938642997    3.8315865916
H       -2.7918285396   -4.9183843194    1.6869978790
H        0.5999723156   -6.8162098786    1.8587833123
H       -4.8515483931   -6.6860220578   -1.7111599935
H       -2.1675702515   -2.1615442096   -1.0298907677
H       -0.5799677404   -1.5841385475    0.5714875058
H       -0.6176806619   -5.2066050150    0.3537510823
23   

C       -4.5608080975   -7.1285785178    0.9419707071
C        1.2274071868   -5.2078968758    3.0981365531
C       -3.2334060344   -4.9750175438    0.6618855109
C        0.4572949112   -5.7571555804    2.1230522809
C       -4.0117476988   -6.1047482588   -1.2429361489
C       -3.9624352533   -6.1157198738    0.1273666889
C       -2.7324729784   -4.1487683126   -0.3200279454
C        1.2729886945   -3.7731340572    3.2401628937
C       -0.1955080037   -3.5046206756    1.4888223775
C       -1.9857242357   -2.8952032933   -0.1915814842
C       -0.9538577988   -2.6053614509    0.6283814100
N       -5.0405595190   -7.9602416542    1.6006227272
N        0.5407576667   -2.9574053607    2.4084963688
N       -0.2569699070   -4.8861611125    1.3014283648
O        1.9672469199   -3.2772615978    4.1108016281
S       -3.1736583936   -4.7198409153   -1.9324735026
H        1.8139176063   -5.8073803749    3.7797843637
H       -3.1142352774   -4.7911550091    1.7261302345
H        0.4105541783   -6.8371779423    2.0027856291
H       -4.5122432964   -6.8604592564   -1.8382148523
H       -2.2654413951   -2.1109529366   -0.8882671256
H       -0.6477762772   -1.5679296207    0.6890547866
H       -0.8711903808   -5.2157502499    0.5644289530
23   

C       -4.6771223320   -7.1515824213    0.8450590598
C        1.2674589958   -5.1200418083    3.0655367086
C       -3.4030798713   -4.9573501548    0.6419725328
C        0.3686801836   -5.6886555781    2.2204467264
C       -3.7597037963   -6.2644801120   -1.2754078035
C       -3.9724511013   -6.1717250546    0.0763832132
C       -2.7580089119   -4.1824417872   -0.2941928628
C        1.3853009684   -3.6831481980    3.1107492203
C       -0.2590793190   -3.4488237310    1.5171955271
C       -2.1036579184   -2.8780463272   -0.1179319999
C       -1.0712571609   -2.5638417472    0.6896178942
N       -5.2432010901   -7.9551884231    1.4690141933
N        0.5965542608   -2.8841480713    2.3152877884
N       -0.4003124034   -4.8347212586    1.4311833732
O        2.1945297106   -3.1701560689    3.8643898163
S       -2.8593935723   -4.8914002740   -1.9084360517
H        1.9048873026   -5.7054041578    3.7128334571
H       -3.4918784437   -4.6885625111    1.6909431838
H        0.2655368717   -6.7704457591    2.1744202854
H       -4.1085974296   -7.0873461695   -1.8896450534
H       -2.4519741236   -2.0854946027   -0.7730703426
H       -0.7916389732   -1.5187891454    0.7484262376
H       -1.1026080134   -5.1781508646    0.7846112240
23   

C       -4.8021108172   -7.1376790611    0.7149446265
C        1.3288757725   -5.0774986061    3.0190612579
C       -3.5629973988   -4.9164579333    0.6134062142
C        0.3068920429   -5.6373195610    2.3210850378
C       -3.4961982972   -6.3591915164   -1.2381009196
C       -3.9791105108   -6.1855069859    0.0340553250
C       -2.7661642862   -4.1809535933   -0.2308747392
C        1.5272690212   -3.6499354258    2.9604393857
C       -0.2776406132   -3.4066479330    1.5525576705
C       -2.1811597213   -2.8446548457   -0.0123259082
C       -1.1349829466   -2.5214048686    0.7707805541
N       -5.4649298787   -7.9174196927    1.2700789665
N        0.6932347669   -2.8504203842    2.2129729058
N       -0.5037371602   -4.7841520895    1.5741187228
O        2.4475503985   -3.1456083110    3.5807194397
S       -2.5189530342   -4.9983014048   -1.7763884311
H        2.0068435155   -5.6631623292    3.6234411439
H       -3.8617186868   -4.5850141998    1.6038676790
H        0.1412259621   -6.7117462806    2.3550702168
H       -3.6955076005   -7.2327275591   -1.8491962336
H       -2.6128322424   -2.0379909730   -0.5967930088
H       -0.8657909616   -1.4735689228    0.8286760860
H       -1.2918076382   -5.1212769720    1.0314478603
23   

C       -4.9085737824   -7.1296491507    0.5620939797
C        1.3786714019   -5.0749553992    2.9588588590
C       -3.7145291590   -4.8816015735    0.5658232904
C        0.2453209716   -5.6025305673    2.4279172678
C       -3.2479420975   -6.4319955294   -1.1355177892
C       -3.9824593289   -6.1955527448   -0.0012446499
C       -2.7823596848   -4.1728936296   -0.1513889512
C        1.6570842469   -3.6708177187    2.7796329170
C       -0.2880135631   -3.3865401263    1.5822622069
C       -2.2549737479   -2.8167435636    0.1081130942
C       -1.1828331683   -2.4930368062    0.8531899286
N       -5.6556738931   -7.8935820746    1.0244250236
N        0.7878676482   -2.8602569130    2.0857090692
N       -0.5961265579   -4.7408900405    1.7265974868
O        2.6782163498   -3.1970633595    3.2474016914
S       -2.2062977107   -5.0771367450   -1.5547679318
H        2.0881214118   -5.6696308473    3.5164845287
H       -4.2063249826   -4.5043028556    1.4577083610
H        0.0178238583   -6.6585448866    2.5547618679
H       -3.3028875043   -7.3469830306   -1.7151881720
H       -2.7872437430   -1.9976614768   -0.3655840139
H       -0.9125729906   -1.4453175191    0.9069161516
H       -1.4618972997   -5.0548977371    1.3009694433
23   

C       -5.0120338861   -7.1111435549    0.3759721683
C        1.4319687275   -5.0596345815    2.9119852071
C       -3.8395716203   -4.8549817108    0.4941284008
C        0.2158533376   -5.5478297596    2.5550673169
C       -3.0578067110   -6.4835578068   -1.0072467859
C       -3.9952214457   -6.1976693424   -0.0473748640
C       -2.7893796781   -4.1723635583   -0.0686024057
C        1.7649530016   -3.6908816861    2.5996633683
C       -0.2875306710   -3.3645763848    1.6119508972
C       -2.3132658330   -2.8046981986    0.2249111366
C       -1.2142037863   -2.4712279298    0.9249885105
N       -5.8342140180   -7.8572969642    0.7264845148
N        0.8664487625   -2.8741762549    1.9514403415
N       -0.6536623030   -4.6824181892    1.8940945978
O        2.8599130041   -3.2542764856    2.9099991845
S       -1.9545515762   -5.1419694354   -1.2877228650
H        2.1685673344   -5.6604222970    3.4261790904
H       -4.4900082841   -4.4414560537    1.2590359889
H       -0.0534144378   -6.5765200215    2.7838173216
H       -3.0012093639   -7.4265073998   -1.5399529557
H       -2.9345625480   -1.9900010170   -0.1339370614
H       -0.9426571247   -1.4232159813    0.9618913785
H       -1.5760479955   -4.9705044390    1.5849144483
23   

C       -5.8349221182   -6.1548218957    0.4978754407
C        0.9829612334   -5.0683754758    3.3132563369
C       -4.0805507456   -4.3326850754    0.2144114976
C       -0.3533729706   -5.2120138400    3.1170999783
C       -3.5489335345   -6.5460479673   -0.3662817770
C       -4.5257966268   -5.7161071642    0.1220048542
C       -2.7808332314   -4.1613058387   -0.1969907950
C        1.7142800030   -4.1017954489    2.5300402798
C       -0.1992232576   -3.4882481355    1.4110967115
C       -1.9946726664   -2.9152065596   -0.2496634384
C       -0.8463385153   -2.6578933702    0.4031810305
N       -6.8977362534   -6.5124045721    0.8113900306
N        1.0766340838   -3.3243701009    1.5900033781
N       -0.9500752331   -4.4041719741    2.1510616827
O        2.9154414144   -3.9797988780    2.6976601599
S       -2.0576198215   -5.6857778509   -0.7279831645
H        1.5273769834   -5.6546084402    4.0398199738
H       -4.7152539127   -3.5259700185    0.5679082304
H       -0.9209532908   -5.9345309472    3.6992259646
H       -3.6767722881   -7.6120781051   -0.5185086798
H       -2.4159187797   -2.1045384402   -0.8359985144
H       -0.2978406226   -1.7654343207    0.1278010304
H       -1.9377013306   -4.4636688957    1.9273421548
23   

C       -5.8964286737   -6.1723351452    0.1927415103
C        1.1136093629   -5.0191943904    3.2643814884
C       -4.1349359169   -4.3387818612    0.0778744917
C       -0.2426082969   -5.0804113844    3.2164932751
C       -3.4977202676   -6.5737348354   -0.2652224363
C       -4.5473918117   -5.7335507066    0.0052834665
C       -2.7846445017   -4.1673659525   -0.1217583624
C        1.8155255054   -4.1326772311    2.3676001551
C       -0.1643966693   -3.4417185094    1.4252696173
C       -2.0392274859   -2.9018557203   -0.1500222404
C       -0.8660428283   -2.6210437912    0.4493075904
N       -6.9932178545   -6.5293248702    0.3524637341
N        1.1305009974   -3.3533227938    1.4633388510
N       -0.8888557162   -4.2712179434    2.2837475679
O        3.0328923551   -4.0838890374    2.4040003456
S       -1.9750386722   -5.7098924155   -0.4367489311
H        1.6956435678   -5.6135125767    3.9543252492
H       -4.8278973069   -3.5243811070    0.2640882550
H       -0.7876580894   -5.7417505271    3.8862554454
H       -3.5901939250   -7.6493047846   -0.3668222803
H       -2.5144885155   -2.0831652343   -0.6812601924
H       -0.3396595349   -1.7261990731    0.1409195552
H       -1.8961198648   -4.2749014133    2.1667119094
23   

C       -5.9315236267   -6.2210762025   -0.1145132058
C        1.2331257321   -4.8326947007    3.1946316266
C       -4.2153092511   -4.3427267752   -0.0492620077
C       -0.1191364173   -4.8257391597    3.3257151543
C       -3.4821679524   -6.5728315869   -0.1269531854
C       -4.5798326430   -5.7518068689   -0.0969628614
C       -2.8534702361   -4.1378474805   -0.0185599096
C        1.8505040983   -4.0296036357    2.1665741689
C       -0.2030477978   -3.2909591035    1.4465063243
C       -2.1759453275   -2.8410428053   -0.0274044152
C       -0.9928834490   -2.4976805937    0.5197457641
N       -7.0317690223   -6.6024789667   -0.1223971568
N        1.0881217527   -3.2642716564    1.3139443163
N       -0.8461981650   -4.0329745477    2.4391266339
O        3.0630007100   -4.0427694527    2.0429471573
S       -1.9717755912   -5.6724176403   -0.0928588104
H        1.8737126161   -5.4211848243    3.8360212852
H       -4.9484483892   -3.5425808600   -0.0464940884
H       -0.5998959387   -5.4233480740    4.0969141015
H       -3.5329698394   -7.6549881870   -0.1699970984
H       -2.7116692791   -2.0394429621   -0.5260818680
H       -0.5231147901   -1.5815501902    0.1841502631
H       -1.8587357462   -3.9886004517    2.4559893600
23   

C       -5.9311262058   -6.2364325453   -0.4629429029
C        1.3106591544   -4.8551599676    3.1870104539
C       -4.2299689834   -4.3649982741   -0.1762789131
C       -0.0107033464   -4.7275433335    3.4767114502
C       -3.5326237115   -6.5979616161    0.0238702594
C       -4.6013858506   -5.7725657534   -0.2095092924
C       -2.8970837661   -4.1595119234    0.1108217185
C        1.8569060939   -4.1634676028    2.0440683630
C       -0.2073533183   -3.2991533112    1.5246571338
C       -2.2385632864   -2.8584407586    0.1328959242
C       -1.0451988291   -2.5009424778    0.6484871620
N       -7.0145641858   -6.6133636819   -0.6636902651
N        1.0560396065   -3.3856996462    1.2395453211
N       -0.7791404245   -3.9264748833    2.6331616056
O        3.0404544752   -4.2848032888    1.7794597421
S       -2.0447684417   -5.7020936609    0.2977303690
H        1.9784434375   -5.4596262678    3.7843268132
H       -4.9377686350   -3.5654743181   -0.3692897241
H       -0.4366598565   -5.2398647916    4.3364204291
H       -3.5909589413   -7.6804280659    0.0364596546
H       -2.7889499055   -2.0570958063   -0.3498427531
H       -0.5990821697   -1.5757884972    0.3060051933
H       -1.7740260620   -3.7921807844    2.7711933281
23   

C       -5.0518829790   -6.7219412693   -1.8893292025
C        1.3106592170   -4.8219176280    3.2612773306
C       -3.3874579789   -4.8600859352   -1.3969714360
C        1.2960787733   -5.3364501701    2.0037627341
C       -3.6037263047   -6.6426156916    0.1142889468
C       -4.0478796069   -6.1156759642   -1.0695375971
C       -2.4381355974   -4.4809708586   -0.4702372340
C        0.6446417236   -3.5685965616    3.5233542679
C       -0.0384488588   -3.4234872223    1.3347399674
C       -1.7053181007   -3.2237986619   -0.5244066598
C       -0.7606210701   -2.7164126152    0.2939963317
N       -5.8655836296   -7.2179298871   -2.5587925736
N       -0.0191225179   -2.8983458444    2.5216007402
N        0.6192588520   -4.6144638929    1.0214623037
O        0.6604526139   -3.1058119557    4.6507745618
S       -2.3686948831   -5.6430430437    0.8661816253
H        1.8082413740   -5.3164090451    4.0834796883
H       -3.6357675040   -4.2808881028   -2.2802908922
H        1.7967888194   -6.2780275306    1.7899174320
H       -3.9709024266   -7.5673185454    0.5447444955
H       -2.0033770577   -2.5615178256   -1.3310113223
H       -0.5854394739   -1.6484598494    0.2645277047
H        0.5582313437   -4.9319846006    0.0612478964
