17   

C        5.9159652525    0.1242808708   -0.8425609228
C        4.6764425716   -0.6282312984   -1.0436197808
C        5.9744454851    1.0493918829    0.1694774502
C        3.5816452153   -0.4470019345   -0.2372720023
C        4.8149746250    1.2595890563    1.0118521070
C        2.2659951024   -1.1421536125   -0.4086026817
C        2.1082031930   -2.3297367053   -1.3477730962
N        3.6766640234    0.5179809332    0.7953903190
O        4.8247653279    2.0832261836    1.9094200320
O        1.2844112229   -0.7092932295    0.1842437942
H        6.7741849810   -0.0418926707   -1.4856986301
H        4.6404381784   -1.3397933707   -1.8610075717
H        6.8601646218    1.6384855738    0.3630895818
H        2.8190578959   -3.1141217136   -1.0750498423
H        2.2886337412   -2.0150779713   -2.3787632492
H        1.0934161938   -2.7307365559   -1.2721421639
H        2.8790887010    0.7373816568    1.3840059899
17   

C        5.9081935102    0.1523373561   -0.8592097946
C        4.6589055294   -0.5745044709   -1.0908287193
C        5.9895634781    1.0077165458    0.2109103947
C        3.5834660551   -0.4497416214   -0.2487894074
C        4.8439223552    1.1713583666    1.0822177503
C        2.2471792405   -1.0928431639   -0.4736933631
C        2.1032113073   -2.3434819283   -1.3293278041
N        3.6993022607    0.4469988066    0.8414653046
O        4.8697338449    1.9422044733    2.0251969635
O        1.2419971995   -0.5386245452   -0.0465966649
H        6.7540970122    0.0248771018   -1.5270254829
H        4.5967934048   -1.2167696302   -1.9622225545
H        6.8821035888    1.5781429621    0.4276984525
H        2.7489245063   -3.1339106174   -0.9377039655
H        2.3808799462   -2.1240013655   -2.3631416969
H        1.0663340104   -2.6908939842   -1.3073961953
H        2.9031967047    0.6647649784    1.4322100857
17   

C        5.8960098584    0.2004531867   -0.9318694513
C        4.6328663803   -0.5018082196   -1.1635495827
C        6.0329310203    0.9630414669    0.2009256228
C        3.6045282893   -0.4538555016   -0.2576512753
C        4.9303547456    1.0560472499    1.1360104756
C        2.2465296070   -1.0559567065   -0.4933323175
C        2.0807136579   -2.3618157989   -1.2592717207
N        3.7731890511    0.3520127518    0.8946431968
O        5.0023396952    1.7501486054    2.1345539527
O        1.2512824461   -0.4054407909   -0.2061265544
H        6.7075190437    0.1297509271   -1.6489672927
H        4.5217658772   -1.0559293528   -2.0885344458
H        6.9373416649    1.5133237666    0.4205620504
H        2.4694262844   -3.1880573379   -0.6581674446
H        2.6166570519   -2.3222270508   -2.2098117954
H        1.0210553799   -2.5408140537   -1.4626240581
H        3.0032414453    0.5442449743    1.5267518971
17   

C        5.8839957569    0.2573243085   -0.9776488863
C        4.6132479791   -0.4209492860   -1.2363174634
C        6.0413564847    0.9425873466    0.2012622445
C        3.6013425379   -0.4282471819   -0.3126142550
C        4.9521033047    0.9802466381    1.1563158847
C        2.2352875803   -1.0068648768   -0.5900788114
C        2.0829161672   -2.3885241920   -1.2121638697
N        3.7861879027    0.3010553680    0.8867594779
O        5.0426179324    1.6045986968    2.1984259011
O        1.2549137168   -0.2830536710   -0.5134046149
H        6.6842013946    0.2305806738   -1.7102624673
H        4.4769914977   -0.9073831435   -2.1958544902
H        6.9521309423    1.4726156988    0.4432787302
H        2.1386432792   -3.1460516780   -0.4260074643
H        2.8736666237   -2.5758605324   -1.9415401173
H        1.1140061542   -2.4670789216   -1.7131206627
H        3.0285833882    0.4641725399    1.5407660467
17   

C        5.8672328951    0.3786947479   -1.0416570647
C        4.5899982013   -0.2778304771   -1.3226331220
C        6.0463682915    0.9830952115    0.1778390595
C        3.5912782317   -0.3358162693   -0.3893739771
C        4.9722006691    0.9604870210    1.1506372066
C        2.2241240464   -0.9227172934   -0.6800819235
C        2.0860717014   -2.3906868804   -1.0545760871
N        3.7957962893    0.3115302431    0.8530144438
O        5.0850762639    1.5029923206    2.2354756494
O        1.2725267753   -0.1776292616   -0.8361910436
H        6.6556712961    0.3963332725   -1.7871804791
H        4.4325534516   -0.7144190691   -2.3032664928
H        6.9640998489    1.4907816615    0.4406087198
H        2.0445929271   -2.9940463294   -0.1439872006
H        2.9412149958   -2.7110805672   -1.6545547741
H        1.1683387805   -2.5463636424   -1.6284192801
H        3.0575300715    0.4252301215    1.5381506584
17   

C        5.8225390625    0.5269537622   -1.1290462976
C        4.5511075813   -0.1149899769   -1.4645072484
C        6.0045303445    1.0092950878    0.1433221085
C        3.5478537131   -0.2468975202   -0.5457813942
C        4.9388530788    0.8752981211    1.1163925472
C        2.2190782802   -0.9123643688   -0.8553202577
C        2.0193944422   -2.3867756180   -0.5436240360
N        3.7622280464    0.2568620543    0.7603426235
O        5.0607301021    1.2876123990    2.2560744170
O        1.2871430145   -0.2533364983   -1.2786800561
H        6.6064427273    0.6227553683   -1.8734178427
H        4.4001450677   -0.4879560440   -2.4723170871
H        6.9204425683    1.4950680707    0.4502129024
H        2.4298516365   -2.6171979158    0.4428996273
H        2.5340902759   -2.9914010530   -1.2947926574
H        0.9535820966   -2.6314777128   -0.5541536248
H        3.0416468311    0.2711457988    1.4725496149
17   

C        5.7969548427    0.6516737611   -1.1636178472
C        4.5367766902    0.0094347126   -1.5381775611
C        5.9868720101    1.0227853063    0.1443333473
C        3.5413465505   -0.2103252775   -0.6269185319
C        4.9401393692    0.7741935270    1.1152127596
C        2.2620803939   -0.9397178983   -0.9788140454
C        1.9409311865   -2.2671228561   -0.3072774994
N        3.7699749199    0.1675984387    0.7197216173
O        5.0728096161    1.0744297606    2.2881792625
O        1.3949635532   -0.3917246713   -1.6356852497
H        6.5678646620    0.8299016735   -1.9064054641
H        4.3866925681   -0.2958239634   -2.5689076836
H        6.8967738827    1.4994720934    0.4818424171
H        2.2968465762   -2.2690003768    0.7257889318
H        2.4338327632   -3.0758368916   -0.8532456787
H        0.8610288171   -2.4391775586   -0.3135168369
H        3.0703544236    0.0849614909    1.4475818569
17   

C        5.7608024716    0.7982345117   -1.1483523644
C        4.5144051611    0.1466355658   -1.5509756486
C        5.9746767395    1.0502732887    0.1842059041
C        3.5492855179   -0.1866642816   -0.6395001967
C        4.9661486903    0.6702055169    1.1533782047
C        2.3169975310   -0.9543562677   -1.0464371933
C        1.8973350991   -2.1910212342   -0.2643525881
N        3.8046327063    0.0642818052    0.7319777986
O        5.1242085829    0.8566197615    2.3466175633
O        1.5514733184   -0.5003881308   -1.8801609597
H        6.5039252873    1.0733930043   -1.8898868664
H        4.3491478597   -0.0754368710   -2.6008082794
H        6.8773811622    1.5253383467    0.5426821699
H        1.7458180939   -1.9413084072    0.7882728196
H        2.6758136122   -2.9544067574   -0.3452836461
H        0.9656046239   -2.5926164305   -0.6729045297
H        3.1407583638   -0.1325491158    1.4708527549
17   

C        5.7517069437    0.8931062747   -1.1350975448
C        4.5300369650    0.2111095919   -1.5620081477
C        5.9794083833    1.0629426632    0.2082322662
C        3.5998078717   -0.2308578743   -0.6592301219
C        5.0098564287    0.5675215843    1.1651895784
C        2.4004493313   -1.0193468075   -1.1057766625
C        1.8687258409   -2.1616286792   -0.2517747647
N        3.8693816797   -0.0627077205    0.7223702280
O        5.1824292442    0.6782171643    2.3658160567
O        1.7582558882   -0.6634972888   -2.0813397249
H        6.4660804631    1.2542819083   -1.8679302345
H        4.3553707534    0.0537711446   -2.6222162766
H        6.8655680245    1.5555815836    0.5838493042
H        1.4140593436   -1.7673382227    0.6601998990
H        2.6875878003   -2.8366254388    0.0116502833
H        1.1163037401   -2.7242989808   -0.8118059339
H        3.2387123683   -0.3561872706    1.4581321463
17   

C        5.7384565937    0.9574620424   -1.1175489542
C        4.5306667650    0.2565790621   -1.5532354355
C        6.0038833539    1.0457769620    0.2266564064
C        3.6525239341   -0.2904090779   -0.6549309504
C        5.0873098211    0.4466935909    1.1763465410
C        2.4539807443   -1.0677588776   -1.1180386673
C        1.8036049821   -2.1055609863   -0.2134693528
N        3.9595450482   -0.2011531726    0.7265378805
O        5.2916041856    0.4887058978    2.3763640744
O        1.9254363648   -0.7978429940   -2.1860423422
H        6.4127146875    1.3972501638   -1.8454077844
H        4.3263567080    0.1713638997   -2.6165272755
H        6.8814893707    1.5493101942    0.6078522364
H        1.3504365591   -1.6160525696    0.6520782279
H        2.5553098608   -2.8241793237    0.1240923315
H        1.0267465034   -2.6432112636   -0.7647216358
H        3.3708957803   -0.5763260126    1.4598785109
17   

C        5.7065425976    1.0084350998   -1.1238753996
C        4.5285726370    0.2636271177   -1.5683312255
C        5.9961263820    1.0507159855    0.2174637115
C        3.7054487251   -0.3787117590   -0.6805186374
C        5.1334958276    0.3610658664    1.1558429473
C        2.5197847827   -1.1718559100   -1.1493680730
C        1.7717034134   -2.0958266735   -0.1975821337
N        4.0328486528   -0.3268152637    0.6984833279
O        5.3574133764    0.3652444283    2.3530826960
O        2.1089247694   -1.0374983989   -2.2928067971
H        6.3399670315    1.5168888451   -1.8436445894
H        4.3056460146    0.2230222665   -2.6305491917
H        6.8534346450    1.5839966814    0.6043452057
H        1.3191341565   -1.5134861766    0.6090035069
H        2.4618676463   -2.8318804630    0.2232346499
H        0.9813444436   -2.6243379004   -0.7384413708
H        3.4858295829   -0.7717764958    1.4249537590
17   

C        5.6717647802    1.0639865925   -1.1340210820
C        4.5259456542    0.2763829557   -1.5887287339
C        5.9832871253    1.0694219446    0.2030781271
C        3.7611081864   -0.4517666124   -0.7150190569
C        5.1749333703    0.2996593749    1.1273707232
C        2.5868448279   -1.2571693550   -1.1917704492
C        1.7421259438   -2.0633418280   -0.2139981817
N        4.1046679652   -0.4287654374    0.6608390044
O        5.4152202335    0.2758483904    2.3212038272
O        2.2979993940   -1.2712463204   -2.3796747577
H        6.2640298324    1.6334472960   -1.8430738070
H        4.2820113496    0.2740341940   -2.6470953688
H        6.8181041489    1.6324847115    0.5968808342
H        1.2978114872   -1.3974614553    0.5303591756
H        2.3637030872   -2.8108474734    0.2857624542
H        0.9393043202   -2.5756216635   -0.7521266722
H        3.5985478107   -0.9344682651    1.3771264130
17   

C        5.6034851910    1.1130769711   -1.1464199881
C        4.4926711631    0.2748161843   -1.5973546048
C        5.9443647280    1.1018460872    0.1835353342
C        3.7972412227   -0.5256767852   -0.7290774165
C        5.2007666439    0.2651028730    1.1041614278
C        2.6353004122   -1.3529533395   -1.1978756225
C        1.7024115162   -2.0256869745   -0.1997264991
N        4.1634523563   -0.5115129262    0.6409018880
O        5.4637916017    0.2308439578    2.2929382698
O        2.4609359928   -1.5396935368   -2.3933267147
H        6.1465758234    1.7333236907   -1.8522265905
H        4.2179890483    0.2915668681   -2.6480384001
H        6.7549020700    1.7011204195    0.5746084006
H        1.2747511822   -1.2760104479    0.4713017802
H        2.2528127875   -2.7687527312    0.3828844517
H        0.8882157602   -2.5259781435   -0.7319936075
H        3.7060014038   -1.0673680508    1.3527627783
17   

C        6.2645337718   -0.1042230047   -0.0283227407
C        5.2016605974   -1.0996667743   -0.1668776868
C        5.9215676085    1.2223929861    0.0588486125
C        3.8791654531   -0.7420714901   -0.1881625351
C        4.5237725005    1.6030959569    0.0124029315
C        2.8031174041   -1.7669852026   -0.4035259428
C        1.4456972592   -1.3628258133   -0.9624388118
N        3.5529846943    0.6359070724   -0.1141174014
O        4.1760158960    2.7689398272    0.0708418837
O        2.9716906851   -2.9186865758   -0.0316716827
H        7.3052378417   -0.4105168115    0.0022878539
H        5.4708409092   -2.1483528161   -0.2528844055
H        6.6630460204    2.0027933323    0.1600084410
H        1.5798310277   -0.8236023067   -1.9040695978
H        0.9212146038   -0.7249115399   -0.2468049940
H        0.8420541987   -2.2551172886   -1.1518811845
H        2.6052420508    0.9918924060   -0.1244781440
17   

C        6.2552311179   -0.1199085831   -0.0968634627
C        5.1842672215   -1.1105400017   -0.2042676826
C        5.9199775732    1.2011004697    0.0697726055
C        3.8645757574   -0.7562803635   -0.1116008681
C        4.5224928000    1.5803117850    0.1366682008
C        2.7738708443   -1.7682767120   -0.3256359304
C        1.4878619340   -1.3748203800   -1.0385378289
N        3.5448724033    0.6166988566    0.0383382720
O        4.1807212119    2.7425890435    0.2625358639
O        2.8478610604   -2.8717291498    0.1917436240
H        7.2953912238   -0.4246225170   -0.1519763343
H        5.4427942013   -2.1538935758   -0.3588055128
H        6.6670580667    1.9784359429    0.1515064464
H        1.7273783109   -0.8729809497   -1.9799927183
H        0.8999333056   -0.7039583806   -0.4075317302
H        0.8968578083   -2.2687272408   -1.2576642207
H        2.5986581734    0.9683579634    0.1172950794
17   

C        6.2272246896   -0.1397276651   -0.1868493585
C        5.1392162191   -1.1153863634   -0.2540694984
C        5.9212579074    1.1760270124    0.0584156960
C        3.8350699803   -0.7546262144   -0.0481453543
C        4.5374388766    1.5639642443    0.2466507375
C        2.7100581202   -1.7427273109   -0.2256238851
C        1.5031399891   -1.3775512216   -1.0783306797
N        3.5442996012    0.6135810549    0.1811643107
O        4.2201425103    2.7229075504    0.4459666535
O        2.6670714108   -2.7597157670    0.4460183003
H        7.2567673606   -0.4507143023   -0.3322674773
H        5.3726826499   -2.1535465600   -0.4696891062
H        6.6813309941    1.9428900089    0.1156640254
H        1.8232825475   -1.2128024217   -2.1106592858
H        1.0307193403   -0.4688220012   -0.6983792341
H        0.7736276948   -2.1923057917   -1.0609708730
H        2.6122239953    0.9659308514    0.3614202910
17   

C        6.1993202266   -0.1561516383   -0.3360760356
C        5.0916882610   -1.1108512265   -0.3862459378
C        5.9372535047    1.1425106153    0.0236296497
C        3.8129150645   -0.7479914620   -0.0658629252
C        4.5794167860    1.5330274003    0.3459928887
C        2.6433006371   -1.7024542371   -0.1830686826
C        1.5228230909   -1.4066532011   -1.1695121791
N        3.5672172717    0.6027112057    0.2858104586
O        4.3007710271    2.6774129500    0.6563707219
O        2.4842602734   -2.5917580194    0.6338754262
H        7.2093949853   -0.4691484673   -0.5801659247
H        5.2923536564   -2.1361404789   -0.6805760410
H        6.7133240021    1.8934411877    0.0773267219
H        1.8011441040   -1.7871405401   -2.1558281809
H        1.3506369960   -0.3300152214   -1.2409602857
H        0.5996238525   -1.8955792758   -0.8462711093
H        2.6612115491    0.9446888752    0.5829307154
17   

C        6.1505095000   -0.1306564063   -0.4542753846
C        5.0176085293   -1.0558283334   -0.4961741938
C        5.9449661383    1.1463265557    0.0058859207
C        3.7670383238   -0.6799469887   -0.0927472970
C        4.6204743012    1.5438698019    0.4396511175
C        2.5672923993   -1.6092903455   -0.1280453662
C        1.6371612963   -1.6003067500   -1.3304150623
N        3.5815202518    0.6438155467    0.3751672349
O        4.3953962537    2.6675909266    0.8523524873
O        2.3018030336   -2.3047498404    0.8352369586
H        7.1361201901   -0.4490317508   -0.7782830862
H        5.1789748940   -2.0690780297   -0.8495282465
H        6.7425797338    1.8741012204    0.0625325719
H        2.1108541275   -2.1283218339   -2.1620118266
H        1.4301224299   -0.5704724200   -1.6326986628
H        0.6952514144   -2.0962422678   -1.0798178199
H        2.7074361835    0.9743094337    0.7668705158
17   

C        6.0828359122   -0.0510868416   -0.5988199635
C        4.9153904775   -0.9320337403   -0.6467508212
C        5.9509719913    1.1918883370   -0.0311961648
C        3.6942522182   -0.5328527904   -0.1762688428
C        4.6682998950    1.5984872405    0.5074506388
C        2.4901168763   -1.4522332948   -0.1241555236
C        1.9111154733   -2.0270722945   -1.4081232545
N        3.5909886224    0.7466952202    0.4207938230
O        4.5163737816    2.6850329165    1.0368491112
O        2.1296882091   -1.9088465759    0.9467050932
H        7.0385563067   -0.3775457652   -0.9960296518
H        5.0321090753   -1.9310127664   -1.0535158013
H        6.7786536876    1.8838598158    0.0405295988
H        2.7102617514   -2.2417102808   -2.1216949089
H        1.2237142177   -1.3019676261   -1.8515533515
H        1.3663574101   -2.9505261916   -1.1930785309
H        2.7578923270    1.0571540377    0.9075581168
17   

C        6.0145235870   -0.0057106734   -0.7125173050
C        4.8362524857   -0.8712264875   -0.7783134840
C        5.9143643288    1.2020454280   -0.0679145311
C        3.6299478674   -0.4837633315   -0.2568374593
C        4.6528189807    1.5897331572    0.5306351241
C        2.4285075552   -1.3949924198   -0.1932650926
C        1.9858145142   -2.1913888583   -1.4135101078
N        3.5613373387    0.7596744559    0.4166973506
O        4.5341869824    2.6387107181    1.1385624627
O        1.9368128236   -1.6581980057    0.8929816472
H        6.9553940184   -0.3180429928   -1.1540813459
H        4.9422088484   -1.8487397465   -1.2356256781
H        6.7528687088    1.8784999008    0.0233470900
H        2.8484600813   -2.5255021006   -1.9936638577
H        1.3553617461   -1.5610841362   -2.0461552018
H        1.4108379379   -3.0667991279   -1.0989078205
H        2.7476458681    1.0374891064    0.9543029838
17   

C        5.9792860872    0.0339972447   -0.7643369103
C        4.7850138696   -0.8075839255   -0.8528403173
C        5.9163217116    1.2014539091   -0.0455974311
C        3.5972790777   -0.4367718741   -0.2765392429
C        4.6767858023    1.5720316111    0.6062638490
C        2.3735758340   -1.3102375635   -0.2338681400
C        2.0167941945   -2.2316766147   -1.3927779549
N        3.5693407632    0.7673410007    0.4684420198
O        4.5924415239    2.5828793942    1.2808901461
O        1.7457838108   -1.4009038984    0.8119685009
H        6.9033713765   -0.2648247846   -1.2486381159
H        4.8666357647   -1.7518843496   -1.3787937361
H        6.7682069182    1.8580367841    0.0648525051
H        2.8749639959   -2.8441762020   -1.6768917105
H        1.6998013732   -1.6319972425   -2.2500992289
H        1.1960520043   -2.8934200764   -1.1016664270
H        2.7680301322    1.0236088603    1.0355067995
17   

C        5.9500534549    0.0842412361   -0.8292149756
C        4.7376686839   -0.7309315204   -0.9200157073
C        5.9382916949    1.2049790120   -0.0371477972
C        3.5838576038   -0.3849710869   -0.2639081742
C        4.7333850699    1.5542833443    0.6873030202
C        2.3375478922   -1.2189739994   -0.2410791133
C        2.0367739081   -2.2257470457   -1.3423798839
N        3.6088276185    0.7736001406    0.5504199507
O        4.6943212689    2.5257020929    1.4214002336
O        1.6022919691   -1.1609443702    0.7366537706
H        6.8471604999   -0.1966253808   -1.3715164015
H        4.7742739694   -1.6343865655   -1.5184629902
H        6.8053179223    1.8408782057    0.0764770463
H        2.7848598136   -3.0222380219   -1.3358891223
H        2.0464941375   -1.7234970953   -2.3133299694
H        1.0486557856   -2.6665913843   -1.1824857866
H        2.8234033188    1.0174676415    1.1452369960
17   

C        5.9212836686    0.1139447155   -0.8345542123
C        4.7104396486   -0.6967258578   -0.9751631210
C        5.9200849615    1.1609430299    0.0526941856
C        3.5717258454   -0.4260322904   -0.2598670717
C        4.7272917422    1.4395002230    0.8258353471
C        2.3128572554   -1.2359473146   -0.3117005409
C        2.0905755839   -2.2952493189   -1.3821000275
N        3.6072603161    0.6606845559    0.6481242795
O        4.6947346684    2.3497872386    1.6347949344
O        1.4661278265   -1.0745732063    0.5597979753
H        6.8082447821   -0.1111847480   -1.4179915794
H        4.7358586077   -1.5333933524   -1.6644279413
H        6.7855278972    1.7912351595    0.2035510621
H        2.8229472286   -3.0984587233   -1.2680935252
H        2.1915852646   -1.8462566349   -2.3736426304
H        1.0855142828   -2.7157460651   -1.2854265162
H        2.8152111129    0.8698784427    1.2478203383
17   

C        5.9368578216    0.0968570200   -0.8680473869
C        4.7048948049   -0.6775506742   -1.0288789046
C        5.9794922135    1.0878035667    0.0804131216
C        3.5948888381   -0.4396215293   -0.2587513919
C        4.8110673452    1.3443255512    0.8970161064
C        2.2999404417   -1.1843748567   -0.3600517874
C        2.1025301347   -2.3101217831   -1.3656454429
N        3.6753594255    0.5908654436    0.7100471247
O        4.8120257064    2.2155216913    1.7485602181
O        1.3782794544   -0.8762857794    0.3874910119
H        6.8036266323   -0.1080674963   -1.4881275649
H        4.6894800094   -1.4564336397   -1.7830817817
H        6.8606223884    1.6923884207    0.2450443124
H        2.8228690678   -3.1094854774   -1.1735871763
H        2.2407329206   -1.9291323482   -2.3807812153
H        1.0909867902   -2.7161786824   -1.2749230796
H        2.8848858070    0.8109929405    1.3080685259
