24   

C       -2.3375651222   -2.2523546022    1.5195067360
C       -4.1300743670    1.8618639547    2.3002127700
C       -4.6340032777   -0.4606146513    2.6565003681
C       -5.3740372896    2.2145468606    2.8360444040
C       -5.8795664351   -0.1018673829    3.1857638754
C       -3.7273192359    0.5180700571    2.1903342436
C       -6.2627219283    1.2358367224    3.2803255433
C       -2.3925766930    0.2468989621    1.5961502352
C       -0.3696257212   -1.0527428876    0.8011800953
C       -1.7355851253   -0.9573049848    1.3446762704
C        1.6287079823    1.8719293108    1.1482574206
N       -2.7852973276   -3.3211462000    1.6389954925
N        0.5973867405   -0.2022592971    0.7263207960
O        0.4431471400    1.0886741080    1.2852576792
Cl      -7.8183159435    1.6746123677    3.9411449614
H       -3.4705110117    2.6544304287    1.9656104456
H       -4.4281059581   -1.5188725858    2.6339468069
H       -5.6570291533    3.2581288971    2.9082491083
H       -6.5592876364   -0.8737461509    3.5282342626
H       -1.8803673031    1.1441571194    1.2802318152
H       -0.0988918466   -2.0256616081    0.4051311708
H        1.4409874642    2.8896769736    1.5022325239
H        1.9364068341    1.9149358950    0.0988710132
H        2.4379622538    1.4350371361    1.7410111666
24   

C       -2.2844868117   -2.2454691416    1.5651327103
C       -4.1979420003    1.8554863119    2.1590014374
C       -4.5853127025   -0.4513195669    2.7108700690
C       -5.4195675265    2.2019057489    2.7478704516
C       -5.8082585855   -0.0993161808    3.2945125668
C       -3.7497781052    0.5225947394    2.1195868347
C       -6.2382118365    1.2273789556    3.3185462239
C       -2.4449327985    0.2539304181    1.4637694959
C       -0.4373548208   -1.0072448735    0.6072751960
C       -1.7708317108   -0.9438636456    1.2377005839
C        1.6279402034    1.7783073827    1.3691599839
N       -2.6664114630   -3.3191723800    1.8065964645
N        0.5489456292   -0.1778049219    0.6231290584
O        0.4152905558    1.0251602881    1.3588053224
Cl      -7.7652391993    1.6579607281    4.0478543198
H       -3.5924705864    2.6434519713    1.7258234924
H       -4.3367304311   -1.5001020568    2.7489827837
H       -5.7398165401    3.2370700299    2.7631807237
H       -6.4329287996   -0.8675748237    3.7357426490
H       -1.9629093574    1.1385045729    1.0672901250
H       -0.2076804713   -1.9375565254    0.0992995250
H        1.4612861779    2.7387289017    1.8652872217
H        1.9680042136    1.9644885504    0.3457161813
H        2.4054276246    1.2309310747    1.9105043803
24   

C       -2.2014762762   -2.2074926695    1.6283605722
C       -4.2606651046    1.8495240344    2.0865788083
C       -4.5709113993   -0.4504508665    2.7117805196
C       -5.4634459489    2.1842768876    2.7192565392
C       -5.7734176551   -0.1096746501    3.3426868249
C       -3.7832383327    0.5266516676    2.0635970886
C       -6.2320495343    1.2077114962    3.3527910217
C       -2.5008084639    0.2693984548    1.3625464649
C       -0.5021179045   -0.9380206954    0.4388648750
C       -1.8013247417   -0.9149542721    1.1508452071
C        1.6241042688    1.6719871788    1.5408901659
N       -2.4963799705   -3.2745786398    1.9908458654
N        0.5031068940   -0.1406384770    0.5380601091
O        0.3900376622    0.9652324472    1.4169214705
Cl      -7.7335142845    1.6243190295    4.1408928237
H       -3.6933376224    2.6383115342    1.6058350776
H       -4.2985881626   -1.4930614872    2.7586673537
H       -5.8076577878    3.2118474479    2.7204921287
H       -6.3594370559   -0.8793342591    3.8318722264
H       -2.0468617430    1.1490174970    0.9209847224
H       -0.3148516006   -1.8153783645   -0.1701112965
H        1.4843199626    2.5492376799    2.1790070828
H        1.9715497979    2.0028355905    0.5572840848
H        2.3843822517    1.0258003095    1.9899923911
24   

C       -2.0782022028   -2.1270413610    1.6999928338
C       -4.3259476902    1.8459786606    2.0116049438
C       -4.5366790484   -0.4430339366    2.7145872463
C       -5.5173864765    2.1601912506    2.6753851666
C       -5.7263684690   -0.1221555505    3.3794140546
C       -3.8041802326    0.5399325992    2.0134946921
C       -6.2286512460    1.1793662247    3.3668232635
C       -2.5373285513    0.3027720423    1.2795686826
C       -0.5399750684   -0.8445091345    0.2985601235
C       -1.8025910781   -0.8618576309    1.0870999530
C        1.6715989790    1.5418814810    1.6808828627
N       -2.2780231206   -3.1726428960    2.1731635908
N        0.4930966750   -0.1014586829    0.4732040384
O        0.4169961252    0.8903703099    1.4828928846
Cl      -7.7139084350    1.5712685911    4.1971618105
H       -3.8030848907    2.6371786645    1.4864547350
H       -4.2284761501   -1.4749987865    2.7769921645
H       -5.8972131037    3.1749721169    2.6562885414
H       -6.2679550450   -0.8948184874    3.9130148218
H       -2.1191131581    1.1797139873    0.7976753587
H       -0.4103692215   -1.6505172069   -0.4146188957
H        1.5775541516    2.2909921128    2.4722519495
H        1.9876693600    2.0395346040    0.7589702878
H        2.4338300044    0.8131740225    1.9732054947
24   

C       -1.9593587537   -1.9841903262    1.7756269911
C       -4.4687388341    1.8415269308    1.8867978855
C       -4.4943095750   -0.3963804435    2.7641364185
C       -5.6554723503    2.1246292146    2.5726365231
C       -5.6791860453   -0.1061424992    3.4512657612
C       -3.8572959240    0.5773743804    1.9641807054
C       -6.2714422741    1.1540000482    3.3629150474
C       -2.6032919910    0.3696216933    1.2004805996
C       -0.5913677596   -0.7076714819    0.1827039262
C       -1.8084924971   -0.7598974629    1.0500869482
C        1.7827370955    1.3421219103    1.8004465544
N       -2.0629837689   -2.9973006834    2.3414249442
N        0.4870932254   -0.0532008256    0.4128416858
O        0.4917878286    0.7839595556    1.5566360438
Cl      -7.7500852073    1.5078027740    4.2216758674
H       -4.0216249140    2.6235534921    1.2837612101
H       -4.1116570754   -1.3972845709    2.8898533252
H       -6.1061701811    3.1070077248    2.4936405172
H       -6.1458888895   -0.8702153059    4.0623512000
H       -2.2500796414    1.2371299979    0.6536783501
H       -0.5592720124   -1.3976298279   -0.6524366213
H        1.7660607781    1.9179342554    2.7301922830
H        2.0662150537    2.0060991058    0.9782241496
H        2.5290122712    0.5468692313    1.8913882971
24   

C       -1.8204039539   -1.7665053661    1.8704163927
C       -4.7152704107    1.7763683105    1.6996180045
C       -4.4386845990   -0.3149083674    2.8522538928
C       -5.8961323488    2.0137873500    2.4123468609
C       -5.6199199775   -0.0712671912    3.5633488490
C       -3.9568871449    0.6086862972    1.8989782806
C       -6.3598622137    1.0923786516    3.3514496269
C       -2.7203362656    0.4439335111    1.0970894634
C       -0.6367086240   -0.5113007818    0.1076312839
C       -1.7989260670   -0.5941815260    1.0501650071
C        1.9810513028    1.0617209025    1.8710873822
N       -1.8226768533   -2.7375409245    2.5143159936
N        0.4983718764    0.0267339744    0.3584962557
O        0.6415728979    0.6305385230    1.6329369434
Cl      -7.8322527797    1.3888953565    4.2420372343
H       -4.3894289781    2.5183151000    0.9795953148
H       -3.9335839147   -1.2396149853    3.0841202464
H       -6.4613708782    2.9218769270    2.2381168741
H       -5.9670011969   -0.7957707129    4.2911488058
H       -2.4931675276    1.2702061049    0.4325827130
H       -0.7544354753   -0.9797346299   -0.8623441807
H        2.0624165259    1.4696835673    2.8826339027
H        2.2590358907    1.8390302857    1.1529200585
H        2.6731967203    0.2197821526    1.7733304142
24   

C       -1.6789809878   -1.4939832064    1.9678020214
C       -4.9908214739    1.6257137307    1.5079937692
C       -4.3717982132   -0.1941204421    2.9514449846
C       -6.1679660903    1.8088592411    2.2424462918
C       -5.5526202492   -0.0081845312    3.6804912726
C       -4.0646784732    0.6201155435    1.8394303879
C       -6.4613695736    0.9923758172    3.3347143174
C       -2.8439275139    0.5046315520    1.0051595748
C       -0.6615269247   -0.2592715571    0.0810745943
C       -1.7741845763   -0.3789471581    1.0744385095
C        2.2047437870    0.7413113426    1.8807745068
N       -1.5904001722   -2.4175740152    2.6727709395
N        0.5292294732    0.1428865108    0.3309301293
O        0.8182825826    0.4708504299    1.6796196827
Cl      -7.9309166203    1.2193387283    4.2500776348
H       -4.8008134724    2.2830939124    0.6672891193
H       -3.7256055222   -0.9854268809    3.2984222763
H       -6.8636293917    2.5923606930    1.9655065290
H       -5.7658376700   -0.6487835772    4.5285678282
H       -2.7595131149    1.2478293194    0.2201948791
H       -0.9061688380   -0.4367408882   -0.9594561563
H        2.3815711936    0.9942694257    2.9300901374
H        2.5192232058    1.5831800545    1.2565465770
H        2.8020923786   -0.1387044878    1.6239673425
24   

C       -2.2439047991   -2.3543558026    1.8998735438
C       -4.2696968042    1.7214356905    1.5884628899
C       -4.3754266337   -0.2799757204    2.9158379628
C       -5.3836097504    2.2304786587    2.2655728094
C       -5.4930560322    0.2322767248    3.5860018315
C       -3.7397340815    0.4537547349    1.8905215737
C       -6.0082958375    1.4894648962    3.2687132458
C       -2.5550274359    0.0007744304    1.1217855078
C       -0.6748079127   -1.3588787566    0.2536256830
C       -1.8425303048   -1.1919826809    1.1630587128
C        2.0315224218   -2.5741141373    2.1745105024
N       -2.5683302125   -3.3134285180    2.4770626635
N        0.5147122748   -1.7077308038    0.5856394239
O        0.7504197881   -1.9858065722    1.9558231083
Cl      -7.4006045174    2.1227894560    4.1109291885
H       -3.8143606392    2.3307512964    0.8161858846
H       -4.0384264152   -1.2527857656    3.2391409599
H       -5.7704245771    3.2108906210    2.0131381816
H       -5.9659363411   -0.3535854927    4.3658686458
H       -2.1659627594    0.7330877214    0.4232623807
H       -0.8056427101   -1.0451185649   -0.7752538859
H        2.1691546960   -2.7676771433    3.2421912533
H        2.8204556844   -1.8970264258    1.8334251118
H        2.1101103464   -3.5204341962    1.6309872955
24   

C       -2.0704835847   -2.1765831022    2.0973384390
C       -4.3901204744    1.6981080737    1.5179422721
C       -4.3430998355   -0.2043046591    2.9864907972
C       -5.5423454227    2.1662486839    2.1593333011
C       -5.4995576122    0.2661887399    3.6205722729
C       -3.7634174977    0.5005234498    1.9088559154
C       -6.1104492309    1.4530621406    3.2147299686
C       -2.5448813268    0.0886849851    1.1693482685
C       -0.5779881383   -1.1589223108    0.3723664611
C       -1.7447115288   -1.0443273593    1.2781984468
C        2.0611029216   -2.8393270761    2.0305817777
N       -2.3363781113   -3.1103098983    2.7424244144
N        0.5878657615   -1.6353078195    0.6300090262
O        0.8420599116   -2.1038067898    1.9434852481
Cl      -7.5506148850    2.0349118095    4.0124158037
H       -3.9823092696    2.2841152447    0.7022893241
H       -3.9325486997   -1.1213971130    3.3797310719
H       -6.0037394574    3.0926698477    1.8376934567
H       -5.9278051871   -0.2969894559    4.4418382483
H       -2.2148710408    0.8048816224    0.4252121274
H       -0.6824384388   -0.7093696152   -0.6080749702
H        2.1915353855   -3.2133379413    3.0501352268
H        2.9082578344   -2.1941967201    1.7792441527
H        2.0399536490   -3.6898989468    1.3426772871
24   

C       -1.9331843839   -2.0117265858    2.3022586233
C       -4.4547644214    1.6844954151    1.4841217432
C       -4.3496536038   -0.1530629759    3.0296972526
C       -5.6395351577    2.1240525868    2.0849720182
C       -5.5381359874    0.2891198750    3.6238176140
C       -3.7803451427    0.5345007011    1.9351786470
C       -6.1944476899    1.4290928729    3.1591087717
C       -2.5299878160    0.1530411545    1.2314844042
C       -0.4981836799   -1.0008384557    0.5017708120
C       -1.6683757304   -0.9290097054    1.3971401852
C        2.0843175551   -3.0256372549    1.8593513127
N       -2.1512376921   -2.9042633451    3.0198774298
N        0.6362471710   -1.5849676878    0.6701434873
O        0.8918221257   -2.2442184760    1.8979995970
Cl      -7.6746143643    1.9755729328    3.9070172340
H       -4.0597784157    2.2556653405    0.6517999176
H       -3.9094845391   -1.0354055179    3.4670292805
H       -6.1368783044    3.0137802132    1.7166535799
H       -5.9562580009   -0.2597966918    4.4598349090
H       -2.2355226983    0.8522829883    0.4569911577
H       -0.5721265671   -0.4396485750   -0.4222885509
H        2.2002984212   -3.5634915898    2.8047072356
H        2.9533585365   -2.3776127432    1.7118835061
H        2.0346989913   -3.7528900205    1.0434180325
24   

C       -3.0037669818   -1.9072035395    0.4048070009
C       -4.0628590378    2.0850116025    2.3023510838
C       -4.5707404716   -0.2506103405    2.5509229403
C       -4.9590905116    2.3912342079    3.3322980229
C       -5.4684066222    0.0624941031    3.5791447185
C       -3.8450670181    0.7595405658    1.8811861812
C       -5.6720376956    1.3830181383    3.9799005898
C       -2.8716098758    0.5435619314    0.7800151375
C       -1.4551786517   -0.4364430594   -0.9468528024
C       -2.4541737722   -0.6113352694    0.1190144262
C       -0.0635830941   -3.4978526802   -2.1173663863
N       -3.4560222963   -2.9593895509    0.6235930397
N       -0.7349434441   -1.2952464606   -1.5813668447
O       -0.8227599165   -2.6672408373   -1.2413267521
Cl      -6.7919331898    1.7649343022    5.2639831924
H       -3.5309989656    2.9015782671    1.8276450981
H       -4.4772602562   -1.2997400953    2.3198504486
H       -5.1058045009    3.4214290628    3.6353053620
H       -6.0144557047   -0.7321641611    4.0745563593
H       -2.4015831943    1.4585964435    0.4378536438
H       -1.2642664008    0.5861457072   -1.2502103604
H       -0.2113680008   -4.5470814609   -1.8457780974
H        1.0005264494   -3.2575390809   -2.0349965995
H       -0.3869882698   -3.3521412503   -3.1523632418
24   

C       -2.8064510763   -1.9340898269    0.6016928390
C       -4.1009234875    2.0891870069    2.2725424848
C       -4.5683850392   -0.2494885133    2.5662847007
C       -5.0374467650    2.4026892858    3.2636848290
C       -5.5045136987    0.0706983110    3.5573778197
C       -3.8397355677    0.7580815950    1.8956934007
C       -5.7487069959    1.3964027621    3.9159663856
C       -2.8260184692    0.5361300193    0.8321860725
C       -1.3163649093   -0.4483061282   -0.8066626124
C       -2.3401342554   -0.6264459398    0.2329625435
C       -0.1534792157   -3.4866486426   -2.2637606540
N       -3.1822377636   -2.9974084564    0.8979531484
N       -0.6806834443   -1.3002315620   -1.5344412011
O       -0.9399091468   -2.6842554569   -1.3855958743
Cl      -6.9176185957    1.7871949399    5.1528205447
H       -3.5720987276    2.9048575327    1.7929300516
H       -4.4517791134   -1.3016905723    2.3619447083
H       -5.2171601136    3.4371431347    3.5324912699
H       -6.0498820625   -0.7224647044    4.0559345426
H       -2.3904847630    1.4566333319    0.4604941944
H       -1.0302946129    0.5760332832   -1.0139278853
H       -0.4019230049   -4.5415740240   -2.1157452906
H        0.9107191126   -3.3415165163   -2.0556162194
H       -0.3572543750   -3.2182174629   -3.3046108059
24   

C       -2.6037150066   -1.9405237091    0.7925119273
C       -4.1282533047    2.0901123842    2.2383014995
C       -4.5576268626   -0.2518384572    2.5634905970
C       -5.1047383743    2.4030547025    3.1903167940
C       -5.5318508030    0.0676851961    3.5173697570
C       -3.8254079642    0.7576474314    1.8998886401
C       -5.8152239128    1.3947647758    3.8404971463
C       -2.7724393122    0.5350784835    0.8758679467
C       -1.1717387396   -0.4595188385   -0.6722969044
C       -2.2227508215   -0.6306577548    0.3430446736
C       -0.3017925364   -3.4781903594   -2.3487062061
N       -2.8996842758   -3.0057443807    1.1629293356
N       -0.6315431738   -1.3036699054   -1.4813762099
O       -1.0850555916   -2.6452442177   -1.4964024620
Cl      -7.0326245529    1.7848587623    5.0298911399
H       -3.6012418540    2.9069957171    1.7587561139
H       -4.4174747819   -1.3048037032    2.3779795295
H       -5.3164733855    3.4385942271    3.4300370120
H       -6.0772673805   -0.7269260733    4.0135559034
H       -2.3666350752    1.4554248930    0.4714284912
H       -0.7873419297    0.5470083298   -0.7876440894
H       -0.6573715217   -4.5102433186   -2.2786160019
H        0.7496341663   -3.4458369162   -2.0478743232
H       -0.3902811338   -3.1431601840   -3.3863895459
24   

C       -2.3822467273   -1.9342920784    0.9819202827
C       -4.1493701704    2.0765072002    2.1951636921
C       -4.5189330835   -0.2703659106    2.5586533201
C       -5.1663966480    2.3794281939    3.1072084035
C       -5.5324109329    0.0391724152    3.4740976655
C       -3.7945967776    0.7471139006    1.8991969282
C       -5.8660792937    1.3636954908    3.7579161564
C       -2.7032993979    0.5315597758    0.9160164589
C       -1.0146782546   -0.4750098126   -0.5425437729
C       -2.0923631645   -0.6314481071    0.4525429521
C       -0.4969013653   -3.4507311945   -2.4101814167
N       -2.5973717911   -2.9927194240    1.4207757569
N       -0.5810479191   -1.3027337013   -1.4276379628
O       -1.2159460453   -2.5628323128   -1.5565071506
Cl      -7.1329389369    1.7414844339    4.8986394646
H       -3.6319288488    2.8980137299    1.7130978386
H       -4.3431913983   -1.3219571728    2.3947647016
H       -5.4184852656    3.4127966681    3.3151107463
H       -6.0697031699   -0.7610423457    3.9701146064
H       -2.3249445934    1.4480568105    0.4774188704
H       -0.5388336850    0.4979124641   -0.5783196034
H       -0.9959475797   -4.4238690314   -2.4299419951
H        0.5247459475   -3.5854872249   -2.0425255336
H       -0.4636280712   -3.0493109753   -3.4273755144
24   

C       -2.1693763200   -1.9215364679    1.1806625953
C       -4.1813530746    2.0565193759    2.1109434063
C       -4.4545571932   -0.2857067726    2.5770416367
C       -5.2409962363    2.3533664101    2.9753511829
C       -5.5104753836    0.0180273673    3.4451528819
C       -3.7564087222    0.7330868510    1.8923506475
C       -5.9138456384    1.3372631528    3.6535971405
C       -2.6257790163    0.5197123826    0.9555407402
C       -0.8439075396   -0.5089418113   -0.3960750777
C       -1.9560263726   -0.6386659650    0.5740871196
C       -0.7246603821   -3.3780075118   -2.4682409840
N       -2.3191741255   -2.9635902169    1.6810338711
N       -0.5247051474   -1.3040526962   -1.3544188793
O       -1.3247664839   -2.4559333100   -1.5603394008
Cl      -7.2334792113    1.7078250568    4.7353506431
H       -3.6865803584    2.8771904027    1.6042831148
H       -4.2246292533   -1.3341483775    2.4671191030
H       -5.5477231020    3.3821376802    3.1241500899
H       -6.0263583005   -0.7825144818    3.9628832550
H       -2.2720918125    1.4248043084    0.4746034866
H       -0.2734968092    0.4115351260   -0.3557237807
H       -1.3566810133   -4.2659852834   -2.5600726568
H        0.2606147148   -3.6824117744   -2.1025856331
H       -0.6159268339   -2.9175107309   -3.4547252763
24   

C       -1.9618382707   -1.9123904372    1.4231887960
C       -4.2141589302    2.0146256261    1.9857281837
C       -4.3689698711   -0.2949928199    2.6340772503
C       -5.3139805828    2.3169166205    2.7965522449
C       -5.4655310198    0.0145375304    3.4479270389
C       -3.7096764044    0.7051279319    1.8864749622
C       -5.9484136892    1.3204086281    3.5382247075
C       -2.5426693502    0.4813812929    0.9988423850
C       -0.6713298334   -0.5808436197   -0.2283932748
C       -1.8111469812   -0.6687101956    0.7262932735
C       -0.9828515010   -3.2376882572   -2.5380321133
N       -2.0585729889   -2.9235119461    1.9945897013
N       -0.4720696734   -1.3200230093   -1.2584505560
O       -1.4179412859   -2.3448654662   -1.5139548755
Cl      -7.3182511519    1.6981112317    4.5530354376
H       -3.7513459502    2.8190911975    1.4256886635
H       -4.0760782479   -1.3333915814    2.6150767664
H       -5.6825218003    3.3345117541    2.8534005777
H       -5.9506596813   -0.7710482991    4.0158634370
H       -2.2180428577    1.3605550588    0.4536271685
H       -0.0003987451    0.2624325832   -0.1148407221
H       -1.7404004676   -4.0103395168   -2.6976582103
H       -0.0442179357   -3.7182990754   -2.2462950199
H       -0.8315473951   -2.6921374380   -3.4743400032
24   

C       -2.7750763730   -1.6415483457    0.1851310177
C       -3.6738301359    1.5704535844    3.3141146125
C       -4.8026256086   -0.1565532946    2.0805264966
C       -4.8621227942    1.8632906315    3.9929756101
C       -5.9877321740    0.1388991483    2.7651050458
C       -3.6109061667    0.5535201664    2.3442037605
C       -6.0303028520    1.1490832507    3.7264584418
C       -2.3083834915    0.3183636354    1.6750038518
C       -0.5259410879   -0.6120492509    0.2060571793
C       -1.9375490094   -0.6014390722    0.7022061101
C       -0.6291571619    0.4115973742   -3.1700544766
N       -3.4334446023   -2.5063950439   -0.2349212156
N       -0.1358068793   -0.2412133178   -0.9569651526
O       -1.1435227048    0.1850994407   -1.8585539592
Cl      -7.5126241976    1.5129514377    4.5745728738
H       -2.7892496112    2.1506507801    3.5505916717
H       -4.8678687578   -0.9468559809    1.3489153714
H       -4.8823951544    2.6530354610    4.7348722853
H       -6.8883318309   -0.4230195178    2.5454880524
H       -1.5144440425    0.9910550931    1.9796079855
H        0.2480947002   -0.8648149349    0.9209186934
H       -1.4370594308    0.7397437348   -3.8303058245
H       -0.1978637654   -0.5106486552   -3.5708801699
H        0.1425822057    1.1868537085   -3.1437454968
24   

C       -2.7790387869   -1.9152037591    0.3546117579
C       -3.6942587919    1.7205049726    2.9830142757
C       -4.7589803641   -0.2796336900    2.1802961903
C       -4.8609520776    2.0645464245    3.6752845145
C       -5.9238640059    0.0704848779    2.8736969806
C       -3.6113999400    0.5421754101    2.2194459641
C       -5.9873217202    1.2430036225    3.6271421371
C       -2.3335748486    0.2608486560    1.5214856692
C       -0.5583397116   -0.8588911705    0.1693292580
C       -1.9458142884   -0.8154070930    0.7339882373
C       -0.6993859582    0.7411075646   -2.9702262464
N       -3.4308397476   -2.8296303196    0.0439682202
N       -0.1841475263   -0.3502671353   -0.9450962576
O       -1.1726263071    0.3490045042   -1.6821585520
Cl      -7.4436625460    1.6726222962    4.4894068492
H       -2.8416478480    2.3869691379    3.0460394750
H       -4.8036291317   -1.2027279532    1.6236223607
H       -4.8968788866    2.9783223074    4.2568356524
H       -6.7918461118   -0.5770900125    2.8255786668
H       -1.5689673453    1.0199040572    1.6444188766
H        0.1888071620   -1.3996225190    0.7381207912
H       -1.5065679424    1.2247569243   -3.5277398704
H       -0.3581642755   -0.1342861701   -3.5312417172
H        0.1309187169    1.4462157061   -2.8669821874
24   

C       -2.7784924222   -2.1329244016    0.5281639594
C       -3.7219690276    1.7889616003    2.6903081423
C       -4.7105934833   -0.3628439571    2.2768911689
C       -4.8617413513    2.1761391129    3.4043634753
C       -5.8498777688    0.0314252724    2.9888706501
C       -3.6158097903    0.5129573971    2.1084973574
C       -5.9375078290    1.3016252405    3.5593437127
C       -2.3686739421    0.1915283792    1.3734124221
C       -0.6171275668   -1.0473501612    0.0925855276
C       -1.9609721403   -0.9785651576    0.7450245941
C       -0.7133792014    1.0220674218   -2.7643265036
N       -3.4145468806   -3.0919493522    0.3465958167
N       -0.2442146510   -0.4224458250   -0.9631557509
O       -1.1658453082    0.5029059969   -1.5140152682
Cl      -7.3611607280    1.7853935198    4.4471598455
H       -2.9081365976    2.4983547036    2.5925062741
H       -4.7317932965   -1.3633107685    1.8736103682
H       -4.9160136974    3.1651189171    3.8441517022
H       -6.6784739212   -0.6585830440    3.1000572230
H       -1.6425034529    0.9958754318    1.3284179215
H        0.0655990651   -1.8028702935    0.4635378014
H       -1.4801254084    1.6742506414   -3.1921376609
H       -0.5143396397    0.2050562664   -3.4646772772
H        0.2037551804    1.6013249068   -2.6207676314
24   

C       -2.7938317289   -2.2821252747    0.6732330714
C       -3.7645693770    1.8022027536    2.4924027300
C       -4.6914048406   -0.4110958582    2.3491434973
C       -4.8840333698    2.2247024111    3.2184443920
C       -5.8104017573    0.0180742659    3.0730183060
C       -3.6383388071    0.4770555321    2.0384934311
C       -5.9185631859    1.3370243986    3.5147267363
C       -2.4146249825    0.1221325696    1.2793818693
C       -0.7136005239   -1.1923728431   -0.0040303020
C       -2.0063385797   -1.0866337586    0.7267614363
C       -0.6379110106    1.1995593320   -2.6057715465
N       -3.4022678497   -3.2741560192    0.6205275949
N       -0.3019883649   -0.4844557437   -0.9935787822
O       -1.1253382057    0.5915920428   -1.4097395922
Cl      -7.3166578503    1.8641985902    4.4183070133
H       -2.9828688645    2.5232950096    2.2823095038
H       -4.6940264775   -1.4485487486    2.0532570903
H       -4.9545599797    3.2517324352    3.5570435994
H       -6.6066776483   -0.6830105073    3.2954495844
H       -1.7110301562    0.9361034599    1.1431656069
H       -0.1057696408   -2.0607430995    0.2230127588
H       -1.3041771023    2.0142108941   -2.9036120109
H       -0.5969246425    0.4633798346   -3.4143702634
H        0.3648018292    1.6055130333   -2.4407190450
24   

C       -2.7889644805   -2.3645686435    0.7919289066
C       -3.7986512368    1.8032049065    2.3790351742
C       -4.6966030172   -0.4262621957    2.3665279091
C       -4.8961449356    2.2415949316    3.1289239702
C       -5.7920503724    0.0180568722    3.1167299469
C       -3.6679632296    0.4609873986    1.9792241266
C       -5.9033514029    1.3531009524    3.5056110835
C       -2.4659655933    0.0910844324    1.1913721206
C       -0.8159179975   -1.2735207655   -0.1204371556
C       -2.0577708428   -1.1355286286    0.6758838724
C       -0.5123679983    1.3298978717   -2.5035241239
N       -3.3479203044   -3.3834963063    0.8718864329
N       -0.3458310392   -0.5129112420   -1.0460099146
O       -1.0630946703    0.6667071603   -1.3656968221
Cl      -7.2722079302    1.8990472690    4.4422303870
H       -3.0378317747    2.5257974217    2.1066793340
H       -4.6990305069   -1.4747152079    2.1132920055
H       -4.9705112732    3.2817229896    3.4238594761
H       -6.5673949531   -0.6839707086    3.4014991959
H       -1.7811235410    0.9107502293    1.0073201119
H       -0.2774076128   -2.2062349452    0.0049464981
H       -1.0566056292    2.2606825422   -2.6872303806
H       -0.5955506409    0.6913685764   -3.3881940715
H        0.5421697275    1.5659014213   -2.3306052513
24   

C       -2.7815145362   -2.3991857624    0.9062001447
C       -3.8403553042    1.8145746999    2.3042803216
C       -4.7201968159   -0.4208335053    2.3735059440
C       -4.9085763543    2.2598124400    3.0915607928
C       -5.7839792551    0.0295953574    3.1644700096
C       -3.7135986702    0.4649660657    1.9281208467
C       -5.8891456929    1.3710003144    3.5320687873
C       -2.5398581555    0.0881403524    1.1003235601
C       -0.9450626231   -1.3233069336   -0.2483162967
C       -2.1293498216   -1.1518267352    0.6163826867
C       -0.3614311799    1.4242598007   -2.4198032611
N       -3.2744368135   -3.4322757570    1.1224470896
N       -0.4089312742   -0.5383205065   -1.1185803382
O       -1.0039959807    0.7253228476   -1.3537571260
Cl      -7.2187332757    1.9245623838    4.5194240081
H       -3.0992478870    2.5379560545    1.9839565045
H       -4.7307178182   -1.4726818953    2.1354015813
H       -4.9803206675    3.3055220816    3.3667031253
H       -6.5395133460   -0.6726825330    3.4977755213
H       -1.8811330943    0.9160001319    0.8706654474
H       -0.4773738337   -2.3009509230   -0.2065070037
H       -0.7857102750    2.4282438648   -2.5110637753
H       -0.5108828878    0.8901945288   -3.3629891745
H        0.7118084274    1.5115039888   -2.2241263188
24   

C       -2.7625250196   -2.4233510535    0.9849671145
C       -3.9252451867    1.8080798099    2.1968352930
C       -4.7251927962   -0.4482992513    2.4068214075
C       -4.9603575047    2.2529450186    3.0272114773
C       -5.7542405812    0.0018200981    3.2427563618
C       -3.7742019101    0.4480436582    1.8691920534
C       -5.8821793442    1.3534647081    3.5622770121
C       -2.6355406714    0.0744002099    0.9910472666
C       -1.0839655371   -1.3696797884   -0.3937241613
C       -2.2076454588   -1.1732093543    0.5384782330
C       -0.1739078625    1.4814034811   -2.3195532220
N       -3.1761313891   -3.4584557643    1.3233655305
N       -0.4793282197   -0.5709315366   -1.2063911282
O       -0.9298077421    0.7635841718   -1.3442631549
Cl      -7.1682210617    1.9065624823    4.6059603305
H       -3.2295262543    2.5407142258    1.8039444344
H       -4.7179640004   -1.5085224754    2.2093542769
H       -5.0515963926    3.3068097486    3.2625999370
H       -6.4646411157   -0.7088377755    3.6494277485
H       -2.0285010465    0.9199375442    0.7011081926
H       -0.6928467280   -2.3805760595   -0.4365518459
H       -0.4788292478    2.5318150830   -2.3222032146
H       -0.3482392626    1.0600813721   -3.3141392550
H        0.8945033928    1.4252476123   -2.0891088000
24   

C       -2.3715542403   -2.2612576559    1.4629268454
C       -4.0682509059    1.8172284548    2.5410697938
C       -4.7144223133   -0.4970832337    2.5275399211
C       -5.3449825149    2.1722910944    2.9906291613
C       -5.9909176410   -0.1351184641    2.9749196677
C       -3.7166748217    0.4765733432    2.2941584751
C       -6.3195893302    1.1996460809    3.2103314242
C       -2.3342715382    0.2084219108    1.8158617271
C       -0.3066549176   -1.1016173049    1.0097831080
C       -1.7047745089   -0.9856679089    1.4557584021
C        1.6029179316    1.9100402436    0.8979252590
N       -2.8643836934   -3.3167816784    1.4498681354
N        0.6380703922   -0.2364984354    0.8541275615
O        0.4313373471    1.1318792651    1.1412600447
Cl      -7.9138139413    1.6421116142    3.7685683674
H       -3.3424265931    2.6068268102    2.3829836540
H       -4.5598513710   -1.5541025408    2.3824398393
H       -5.5857640433    3.2133076065    3.1715624943
H       -6.7379566659   -0.9024825132    3.1426689870
H       -1.7553528503    1.1135740785    1.7381042280
H        0.0120365213   -2.1065118944    0.7537885587
H        1.3975632136    2.9622684231    1.1148034989
H        1.9067525277    1.8183156138   -0.1493039959
H        2.4213662338    1.5703678703    1.5398621415
