56

C     -2.68078   -0.79155   -1.36694
C     -1.61641    0.15931   -1.13707
C     -0.61854   -0.36867   -0.36316
C     -3.89916   -0.59370   -2.13267
C     -2.46498   -2.00769   -0.75081
C     -4.50034   -2.96341   -1.60163
C     -1.61234    1.56330   -1.67439
C     -8.48178   -0.83934   -2.67777
C     -6.84593    0.23402   -1.10308
C     -8.10204   -3.21615   -1.08823
C      0.63423    0.28872    0.14399
C     -2.17765   -5.23216   -1.26033
C     -2.99804   -4.38483   -0.28133
C     -6.08807   -1.53281   -2.78551
C      1.16417    2.99987    2.73674
C      1.53127    1.89406    1.74911
C     -1.69360   -6.52671   -0.63349
C     -7.21675   -1.05866   -1.83377
N     -4.78835   -1.69834   -2.11823
N     -3.33483   -3.06876   -0.83711
N      2.38177    3.55866    3.34305
N      0.33053    1.33127    1.13068
O     -4.18319    0.43150   -2.74906
O     -5.20645   -3.94581   -1.80255
O     -7.42084   -2.00637   -0.77143
F     -2.78776   -7.30009   -0.20586
S     -0.96014   -2.03634    0.11557
H     -2.51054    2.09727   -1.35259
H     -0.73863    2.11139   -1.31920
H     -1.63106    1.55860   -2.76806
H     -8.73769   -1.71583   -3.28107
H     -9.33047   -0.60771   -2.02721
H     -8.33517    0.00437   -3.35880
H     -6.00704    0.05985   -0.42433
H     -7.69862    0.56360   -0.50247
H     -6.56531    1.02200   -1.80429
H     -8.02400   -3.84499   -0.19850
H     -7.63663   -3.75185   -1.92154
H     -9.16387   -3.03791   -1.30299
H      1.32051   -0.48207    0.54024
H      1.16360    0.76195   -0.69201
H     -1.29584   -4.67249   -1.59534
H     -2.78902   -5.45090   -2.14084
H     -2.45113   -4.22056    0.65286
H     -3.93259   -4.88831   -0.04060
H     -6.35248   -2.48946   -3.23464
H     -5.95022   -0.79485   -3.57559
H      0.44356    2.60226    3.47424
H      0.65100    3.79675    2.18986
H      2.16247    2.32227    0.96285
H      2.14326    1.12642    2.26240
H     -1.06932   -6.34129    0.24822
H     -1.13047   -7.12992   -1.35202
H      2.80105    2.87426    3.97088
H      2.14295    4.36557    3.91631
H     -0.27495    0.93469    1.84795
