35

C     -1.25546    3.17724   -4.04599
C     -1.62064    2.29262   -5.06641
C     -1.32934    2.77578   -2.70728
C     -2.15626    0.62129   -3.41565
C     -2.07842    1.00395   -4.76054
C     -1.77388    1.48382   -2.37869
C      1.27401   -1.18197   -1.19470
C     -0.57147    0.25413    1.06296
C      1.92870   -2.23854   -1.68453
C     -2.49185    0.01546   -5.88277
C      1.92411    0.08416   -0.66264
C     -0.23711   -1.03749   -1.11329
C      0.81370    2.04529    0.58083
C      0.80455    1.14789   -0.65328
C     -0.49076    0.33193   -0.46280
C     -1.80244    1.03390   -0.93638
O     -2.87748   -1.11694   -5.48133
O     -1.19074   -0.52951    1.74616
O     -2.38815    0.46419   -7.05663
O      0.15708    1.27439    1.62214
H     -0.91593    4.18385   -4.28745
H     -1.57292    2.57000   -6.11592
H     -1.05433    3.47139   -1.91392
H     -2.54002   -0.37652   -3.21511
H      1.39861   -3.11327   -2.05478
H      3.01521   -2.25680   -1.74658
H      2.27511   -0.09167    0.36379
H      2.79252    0.39200   -1.25265
H     -0.66028   -1.05191   -2.12124
H     -0.71165   -1.84074   -0.54141
H      1.81381    2.29391    0.94575
H      0.24589    2.96961    0.42948
H      0.79255    1.72011   -1.58223
H     -1.99547    1.89585   -0.28578
H     -2.62114    0.32720   -0.76646
