40

C     -0.04205   -2.67447   -1.28079
C      2.30957   -2.54909   -0.78826
C      0.21858   -3.49889   -2.37544
C      2.59015   -3.37386   -1.88051
C      1.88353   -5.43585    1.85979
C      0.77779   -4.68474    1.53421
C      2.24443   -3.47648    2.66665
C      0.99717   -2.17812   -0.48161
C      1.54030   -3.83987   -2.67057
C     -1.13056    0.44622    1.51271
C     -1.75747   -0.30545    0.36415
C     -0.25082   -0.15663    0.43323
C      0.53744    1.59545   -3.33303
C      0.18393   -2.24763    1.88593
C      0.30911    0.45681   -2.33863
C      0.71061   -1.32329    0.75660
N      2.79273   -4.67300    2.56789
N      1.01078   -3.42647    2.06617
O      1.91546   -0.77759    1.29492
S      0.48976    1.11793   -0.63010
Cl     1.87976   -4.87419   -4.04918
H     -1.07236   -2.41166   -1.06773
H      3.11908   -2.20580   -0.15419
H     -0.59208   -3.87150   -2.99393
H      3.61234   -3.66035   -2.10674
H      2.07465   -6.47588    1.62859
H     -0.12191   -4.91110    0.98037
H      2.68102   -2.60801    3.14079
H     -1.22636    1.52631    1.53203
H     -1.13550   -0.02089    2.49121
H     -2.19544   -1.27559    0.57932
H     -2.28079    0.26108   -0.39951
H     -0.19670    2.39575   -3.20030
H      1.53711    2.02758   -3.22157
H      0.45111    1.21460   -4.35608
H      0.17693   -1.68200    2.81922
H     -0.83187   -2.58141    1.67048
H      1.02344   -0.35101   -2.49941
H     -0.69922    0.04596   -2.43684
H      2.17593   -0.04392    0.70462
