64

C     -0.41431    5.33016   -1.76677
C      1.57875    6.52111   -2.42953
C     -1.20908    6.33138   -2.33075
C      0.80125    7.53421   -2.99632
C      0.98619    5.40657   -1.81731
C      1.82299    4.31444   -1.23498
C      2.54803    3.45082   -2.07686
C      1.87430    4.13171    0.16024
C     -0.58357    7.41495   -2.93934
C      3.34290    2.45736   -1.47121
C      2.63225    3.05666    0.65935
C      4.58871    4.90791   -8.28924
C      3.42554    3.96527   -7.95215
C      4.64058    6.09149   -7.31311
C      3.48716    3.49313   -6.49238
C      4.69743    5.60990   -5.85722
C      3.52889    4.67729   -5.51537
C      3.64104    0.07778   -2.20155
C      5.66662    1.54590   -1.76382
C      4.07871    3.12448    2.70558
C      2.43698    1.21777    2.36860
C      2.46553    3.57240   -3.58274
C      1.13530    5.06380    1.08611
C      4.21615    1.50386   -2.27201
C      2.70680    2.71390    2.14013
N      3.35793    2.27153   -0.14583
N      3.67200    4.21175   -4.12972
O     -0.13694    4.47201    1.41854
F     -1.34977    8.39241   -3.49103
H     -0.88101    4.48240   -1.27540
H      2.66147    6.60654   -2.45482
H     -2.29333    6.27982   -2.30282
H      1.25097    8.40085   -3.47116
H      4.49888    5.26998   -9.32025
H      5.53384    4.35065   -8.23122
H      2.47487    4.48843   -8.12500
H      3.43045    3.09886   -8.62360
H      5.50675    6.72748   -7.52974
H      3.74871    6.71706   -7.45555
H      2.62580    2.85182   -6.27538
H      4.38695    2.88549   -6.32910
H      5.63526    5.06801   -5.67861
H      4.69286    6.47127   -5.17505
H      2.58813    5.24952   -5.63842
H      3.61695   -0.27247   -1.16514
H      4.25576   -0.61418   -2.78810
H      2.61873    0.04053   -2.59486
H      5.71692    1.24595   -0.71351
H      6.08139    2.55544   -1.85392
H      6.29397    0.86743   -2.35254
H      4.87739    2.58688    2.18509
H      4.14296    2.89055    3.77416
H      4.25798    4.19860    2.58079
H      3.18649    0.60880    1.85690
H      1.44991    0.93622    1.98756
H      2.46857    0.98749    3.43933
H      2.36985    2.57418   -4.02095
H      1.55220    4.12008   -3.85835
H      1.72092    5.23868    1.99710
H      0.98511    6.03238    0.59691
H      4.22736    1.83337   -3.31207
H      1.92804    3.26851    2.66846
H      3.90025    5.01072   -3.54164
H     -0.60991    5.09262    1.99620
