57

C      2.93621    8.99624    5.95570
C      0.71721    8.56517    6.81960
C     -2.24909    6.32233   -1.15526
C      2.85697    7.85165    5.17811
C      0.62926    7.41021    6.04014
C     -1.90032    5.83716    0.10266
C      0.77928    6.04516   -3.13052
C      0.39088    5.38424   -0.62555
C     -0.10408    6.57580   -4.05610
C      1.31585   12.09116    9.02067
C      0.05478    5.87628   -1.90699
C      1.86493    9.36991    6.79268
C     -1.27442    6.33430   -2.16163
C      1.70356    7.04438    5.21348
C     -0.59151    5.36992    0.36046
C      2.57153   12.39308    8.58963
C      1.97161   10.57664    7.60035
C     -2.71794    7.22107   -5.63916
C      3.76028   14.44252    7.72075
C     -2.55849    8.87472   -3.72854
C      3.45253   13.55310    8.93705
C      0.85849    3.94642    3.43255
C      0.57916    5.07492    4.41330
C      0.90311    4.40854    1.98040
C     -2.53749    7.37879   -4.08001
N      2.97390   11.41377    7.68206
N     -1.34650    6.74136   -3.48416
O     -1.67715    7.13041   -6.34484
O     -3.92461    7.27742   -5.98620
O      0.91373   10.92719    8.39773
O      1.72907    5.93814    4.42456
O     -0.38646    4.90245    1.65645
H      3.82354    9.62086    5.92726
H     -0.11839    8.84438    7.45397
H     -3.25745    6.68018   -1.34179
H      3.67367    7.55722    4.52562
H     -0.27359    6.81244    6.07769
H     -2.62723    5.80676    0.90963
H      1.81631    5.79490   -3.31857
H      1.39871    5.03120   -0.43264
H      0.00439    6.83094   -5.10130
H      0.61239   12.54297    9.70357
H      4.23101   13.85491    6.92782
H      4.43730   15.25837    7.99641
H      2.84208   14.88003    7.31508
H     -1.71371    9.38111   -4.20777
H     -2.49094    9.03791   -2.64571
H     -3.48652    9.31720   -4.10163
H      2.97378   14.14326    9.72635
H      4.39242   13.16863    9.35152
H      1.81010    3.46887    3.69254
H      0.06788    3.19532    3.54089
H     -0.30558    5.63864    4.09920
H      0.41512    4.67978    5.42456
H      1.16658    3.56445    1.32708
H      1.66218    5.19132    1.84870
H     -3.40282    6.89083   -3.62643
