22   
Generated by ForceBalance from scan.xyz: Frame 1 of 24
C       -1.0935149223   -0.6938544746   -0.2636232071
C        0.4278835156   -0.5646117926   -0.2481601418
C        0.5674682795    0.7545848116    0.5490298848
C        1.0846613784   -1.7934588378    0.3843155741
C        0.8718934939   -0.4280736648   -1.7218535325
C        1.7877881982    1.6097713092    0.2238653030
C        0.4172598428    0.5790268757    2.0660557914
O       -1.7821889129   -1.6712020277   -0.4289218297
O       -1.6629985301    0.5372041071   -0.0505078438
O       -0.5732675038    1.5152425431    0.0448020034
H        2.1731486694   -1.6738787638    0.3978057776
H        0.8452673393   -2.6822092016   -0.2050649777
H        0.7428923971   -1.9718641957    1.4055120246
H        1.9619673105   -0.3609682108   -1.7847057475
H        0.4383131709    0.4555058935   -2.1970496736
H        0.5534371566   -1.3111301369   -2.2826161128
H        1.7834627637    2.5186192015    0.8323188703
H        1.8103618254    1.8991249541   -0.8275917903
H        2.6993157318    1.0506888923    0.4562066668
H        0.1576687317    1.5486708870    2.4996585515
H        1.3597401033    0.2550985889    2.5166593098
H       -0.3689908728   -0.1306138855    2.3349559727
22   
Generated by ForceBalance from scan.xyz: Frame 2 of 24
C       -1.0966227842   -0.6737565227   -0.2685875329
C        0.4263008266   -0.5606337574   -0.2562581216
C        0.5742349769    0.7533834687    0.5463383424
C        1.0820419152   -1.7968838513    0.3617240343
C        0.8663480841   -0.4154493854   -1.7308545475
C        1.8079980870    1.5955678386    0.2367952402
C        0.4016957524    0.5880391305    2.0670748223
O       -1.7980112470   -1.6435252927   -0.4241043293
O       -1.6504495103    0.5673060814   -0.0670378834
O       -0.5458938390    1.5312943495    0.0233700386
H        2.1709861188   -1.6813814300    0.3660573166
H        0.8344623229   -2.6801756590   -0.2325396358
H        0.7504410276   -1.9836593606    1.3845598540
H        1.9566472401   -0.3547410040   -1.7963597385
H        0.4367812776    0.4742285251   -2.1979119093
H        0.5413099015   -1.2926229757   -2.2970659311
H        1.8056497953    2.5025444288    0.8484522758
H        1.8466769886    1.8879209594   -0.8133618610
H        2.7100829862    1.0257100763    0.4794688432
H       -0.0767879537    1.4955753835    2.4459627020
H        1.3721830813    0.5112696344    2.5652187504
H       -0.2229677711   -0.2609891862    2.3509639262
22   
Generated by ForceBalance from scan.xyz: Frame 3 of 24
C       -1.1310414511   -0.7077439739   -0.2371947795
C        0.3920375842   -0.6012909026   -0.2457066656
C        0.5516841043    0.7208299231    0.5448281242
C        1.0565093419   -1.8391708034    0.3591989340
C        0.8109289062   -0.4613296240   -1.7278872828
C        1.7906941367    1.5493009040    0.2204465761
C        0.3718600652    0.5815195481    2.0734710640
O       -1.8391618973   -1.6766149846   -0.3646378734
O       -1.6749675772    0.5410866152   -0.0542364091
O       -0.5620263608    1.4980111800    0.0053442326
H        2.1444145964   -1.7142821527    0.3677875614
H        0.8187979587   -2.7164278237   -0.2478575108
H        0.7247076792   -2.0464546414    1.3776509826
H        1.9007009649   -0.4116670611   -1.8097775029
H        0.3827413361    0.4315058221   -2.1896652361
H        0.4695506903   -1.3364141928   -2.2876741771
H        1.7877574531    2.4714190315    0.8090795437
H        1.8392743633    1.8146987749   -0.8363534110
H        2.6877501240    0.9814532946    0.4859319623
H       -0.3267153297    1.3578529205    2.3968534465
H        1.3120049300    0.7704900148    2.5982537465
H       -0.0314450838   -0.3798710112    2.3931457573
22   
Generated by ForceBalance from scan.xyz: Frame 4 of 24
C       -1.1520067083   -0.7008191689   -0.2187736624
C        0.3708878454   -0.6077740352   -0.2398715102
C        0.5515555408    0.7182998697    0.5473525789
C        1.0258293475   -1.8581817676    0.3513822541
C        0.7781425016   -0.4708005535   -1.7263433030
C        1.7980917242    1.5278091474    0.2076101973
C        0.3723131466    0.5862041563    2.0804263178
O       -1.8704990502   -1.6629730290   -0.3371701845
O       -1.6822247211    0.5540852079   -0.0340195352
O       -0.5598863267    1.4989356575    0.0064922980
H        2.1098305141   -1.7183638430    0.4205394437
H        0.8339325638   -2.7143391462   -0.3001331656
H        0.6447143470   -2.1139547873    1.3409529334
H        1.8680132994   -0.4502462287   -1.8192588254
H        0.3686940257    0.4347976206   -2.1799015130
H        0.4080710176   -1.3340539364   -2.2861869357
H        1.7883571799    2.4732808402    0.7576043485
H        1.8682807825    1.7489545653   -0.8578768493
H        2.6872487923    0.9680941206    0.5145256235
H       -0.5194277975    1.1428195764    2.3771169225
H        1.2222313961    1.0230102258    2.6107604480
H        0.2530592466   -0.4407233817    2.4253103260
22   
Generated by ForceBalance from scan.xyz: Frame 5 of 24
C       -1.1480134804   -0.6619242096   -0.2260757176
C        0.3751653048   -0.5883484820   -0.2401676641
C        0.5770191782    0.7358096328    0.5518554042
C        1.0016606274   -1.8545931855    0.3498777880
C        0.7905699006   -0.4548345320   -1.7248204163
C        1.8341267147    1.5263677592    0.2126314891
C        0.3961297470    0.5925791146    2.0810862915
O       -1.8782749675   -1.6140383014   -0.3541519930
O       -1.6629800089    0.5971288514   -0.0323279098
O       -0.5317878429    1.5272150457    0.0166271806
H        2.0819238834   -1.7212078995    0.4713785682
H        0.8368107998   -2.6946795592   -0.3292693337
H        0.5725601211   -2.1322364133    1.3138046239
H        1.8808337235   -0.4667957314   -1.8149591459
H        0.4092832351    0.4648345167   -2.1747070375
H        0.3962923102   -1.3034914722   -2.2904387935
H        1.8130204001    2.4925497888    0.7247602953
H        1.9362690890    1.7053399028   -0.8579144421
H        2.7118872522    0.9764824016    0.5671298284
H       -0.6217659831    0.8655713792    2.3653430888
H        1.0970333938    1.2412807203    2.6125177919
H        0.5855507550   -0.4215729317    2.4345871375
22   
Generated by ForceBalance from scan.xyz: Frame 6 of 24
C       -1.1680311986   -0.6614476593   -0.1770160566
C        0.3558732312   -0.6153488071   -0.2013302157
C        0.5944192217    0.7038496915    0.5904806632
C        0.9533883977   -1.8940751662    0.3921138280
C        0.7642608606   -0.4946427767   -1.6884360050
C        1.8574482489    1.4754900683    0.2329427735
C        0.4460989627    0.5448251978    2.1150689377
O       -1.9150632467   -1.5994950252   -0.3128222480
O       -1.6607236564    0.6019558135    0.0394403926
O       -0.5167033562    1.5138301961    0.0879777030
H        2.0385378624   -1.7915777670    0.4997109588
H        0.7553438737   -2.7351574033   -0.2768522352
H        0.5267225236   -2.1468427251    1.3642200470
H        1.8535209194   -0.5252399231   -1.7857979953
H        0.3958515269    0.4300604122   -2.1391775169
H        0.3514150314   -1.3380799785   -2.2485671713
H        1.8557227667    2.4446740184    0.7395079979
H        1.9488466579    1.6477212589   -0.8396193432
H        2.7323064040    0.9156844835    0.5790445079
H       -0.6052492683    0.5363793106    2.4091955846
H        0.9651453506    1.3562989870    2.6316106833
H        0.9087617900   -0.3792215470    2.4678549767
22   
Generated by ForceBalance from scan.xyz: Frame 7 of 24
C       -1.1703123854   -0.6299904997   -0.2198612164
C        0.3548024574   -0.5951614507   -0.2225958179
C        0.5948531310    0.7184156536    0.5742441158
C        0.9285236881   -1.8747825422    0.3913400496
C        0.7879355887   -0.4840590409   -1.7022535573
C        1.8601134541    1.4908734236    0.2254524953
C        0.4503829786    0.5436467736    2.0918616370
O       -1.9202875361   -1.5619212780   -0.3808251491
O       -1.6593063987    0.6315653728    0.0099848503
O       -0.5132953663    1.5387412616    0.0833503571
H        2.0185429677   -1.8022346457    0.4701035533
H        0.6882080978   -2.7274655722   -0.2485753923
H        0.5191268916   -2.0838791237    1.3813038226
H        1.8786908583   -0.5124820689   -1.7814805883
H        0.4254301558    0.4372570236   -2.1649983805
H        0.3855722266   -1.3314770084   -2.2640716922
H        1.8725989727    2.4463358565    0.7572018511
H        1.9382744369    1.6914592937   -0.8433790664
H        2.7358271350    0.9160024130    0.5430695579
H       -0.5720626841    0.2789910099    2.3714152996
H        0.7361332298    1.4688712547    2.5989288282
H        1.1222692152   -0.2358814415    2.4599716418
22   
Generated by ForceBalance from scan.xyz: Frame 8 of 24
C       -1.1773331989   -0.6236285697   -0.1384447526
C        0.3487712313   -0.6311643942   -0.1623543188
C        0.6339113255    0.6724212504    0.6279059604
C        0.8990105607   -1.9185241860    0.4567061358
C        0.7656515643   -0.5393201695   -1.6472948163
C        1.9118529310    1.4157234315    0.2572309606
C        0.5194564789    0.5003410234    2.1467038320
O       -1.9543014091   -1.5343894687   -0.2926112215
O       -1.6293420527    0.6499592160    0.1008026251
O       -0.4577186366    1.5274909692    0.1647833418
H        1.9934122197   -1.8871023119    0.4846175713
H        0.5966640012   -2.7758010809   -0.1499364503
H        0.5292716486   -2.0853348737    1.4701289126
H        1.8549921056   -0.5802494863   -1.7389936338
H        0.4086898425    0.3823023573   -2.1140295389
H        0.3467368844   -1.3868159737   -2.1967029992
H        1.9850237958    2.3450076316    0.8290725652
H        1.9461923960    1.6618850147   -0.8046415638
H        2.7796754027    0.7966571189    0.5049913780
H       -0.4304681060    0.0418452428    2.4341730935
H        0.5861345483    1.4809026441    2.6250454700
H        1.3329213442   -0.1207348018    2.5315975267
22   
Generated by ForceBalance from scan.xyz: Frame 9 of 24
C       -1.1809816044   -0.6026303872   -0.1631211757
C        0.3456652481   -0.6206865308   -0.1840117977
C        0.6302377894    0.6773318542    0.6089339118
C        0.8972514017   -1.9079970880    0.4322668422
C        0.7650814872   -0.5236473173   -1.6680569489
C        1.9199044701    1.4113299765    0.2557312888
C        0.4979325113    0.5158253722    2.1296065677
O       -1.9645605742   -1.5088935251   -0.3096268762
O       -1.6237662310    0.6778529718    0.0596039784
O       -0.4424468688    1.5458382237    0.1309652908
H        1.9921889582   -1.8917611016    0.4210819454
H        0.5619271136   -2.7684243536   -0.1523618589
H        0.5630593143   -2.0566841461    1.4606940730
H        1.8546596343   -0.5630734857   -1.7573910066
H        0.4085070383    0.3994888038   -2.1318898923
H        0.3485366260   -1.3697435754   -2.2214768914
H        2.0151341735    2.3167174746    0.8619164225
H        1.9489704959    1.6963856035   -0.7967623722
H        2.7781066628    0.7676055450    0.4715976369
H       -0.3432273191   -0.1271795003    2.4038764138
H        0.3071551539    1.4980059147    2.5694550769
H        1.4075442548    0.0929189356    2.5641766051
22   
Generated by ForceBalance from scan.xyz: Frame 10 of 24
C       -1.1974351091   -0.6097294818   -0.1103892062
C        0.3284782935   -0.6472316631   -0.1586087246
C        0.6359679984    0.6528848928    0.6210843502
C        0.8849942760   -1.9376027155    0.4460485427
C        0.7208573874   -0.5572593174   -1.6511082034
C        1.9335049170    1.3662502028    0.2530091494
C        0.5076505929    0.5212267241    2.1501037572
O       -1.9958244995   -1.5072167431   -0.2268510360
O       -1.6184284703    0.6817619600    0.0965970068
O       -0.4214762934    1.5329999716    0.1318360515
H        1.9792685356   -1.9296030198    0.4049745384
H        0.5279805467   -2.7962184918   -0.1283712916
H        0.5791178571   -2.0845589097    1.4832492425
H        1.8082921401   -0.6049717678   -1.7602234318
H        0.3623489447    0.3668840657   -2.1110858913
H        0.2885765432   -1.4023815088   -2.1938406596
H        2.0445799102    2.2740826468    0.8531225803
H        1.9600163513    1.6438962670   -0.8015538530
H        2.7836848128    0.7119170372    0.4687751761
H       -0.1759820977   -0.2791614419    2.4454355941
H        0.0781468961    1.4473314065    2.5398098034
H        1.4753156198    0.3292846481    2.6200689889
22   
Generated by ForceBalance from scan.xyz: Frame 11 of 24
C       -1.0163056908   -1.0846257171   -0.0307557884
C        0.4672796796   -0.7349047031   -0.1182562531
C        0.4451600069    0.6237930909    0.6254092504
C        1.3507615942   -1.8288206040    0.4842677853
C        0.7905239522   -0.5817283613   -1.6231097023
C        1.5186524909    1.6274565103    0.2157990632
C        0.3562906195    0.5157186213    2.1651707970
O       -1.5629581421   -2.1584705589   -0.0956325023
O       -1.7469643941    0.0665998941    0.1441459256
O       -0.8020163378    1.1914268334    0.1187367882
H        2.4028376446   -1.5282381142    0.4392349496
H        1.2349221559   -2.7510597172   -0.0907282380
H        1.1006241666   -2.0569907248    1.5213514735
H        1.8533200333   -0.3622536347   -1.7611193602
H        0.2039478109    0.2148396918   -2.0868891353
H        0.5690484549   -1.5190360119   -2.1408368731
H        1.3900760797    2.5592669803    0.7742244169
H        1.4804771170    1.8553250161   -0.8501433667
H        2.5061761018    1.2221805633    0.4573886153
H        0.1560738028   -0.5000423559    2.5122832701
H       -0.4835711132    1.1254285183    2.5057877070
H        1.2762754863    0.8564625762    2.6454694108
22   
Generated by ForceBalance from scan.xyz: Frame 12 of 24
C       -1.0210290718   -1.0481923569   -0.0332456720
C        0.4660178676   -0.7182038664   -0.1206755075
C        0.4653994132    0.6420553966    0.6288161554
C        1.3320428098   -1.8339306387    0.4686602601
C        0.7891064511   -0.5607622575   -1.6258073249
C        1.5556334805    1.6259213996    0.2194653285
C        0.3662426556    0.5269549699    2.1704815909
O       -1.5828272726   -2.1140593262   -0.0987996161
O       -1.7350807350    0.1130602800    0.1449087819
O       -0.7751098888    1.2226831280    0.1170899100
H        2.3813993032   -1.5216504267    0.4957863493
H        1.2582515854   -2.7247968585   -0.1599837805
H        1.0294935225   -2.1241717717    1.4757256526
H        1.8581623362   -0.3749661172   -1.7654017569
H        0.2267307752    0.2579730784   -2.0805983533
H        0.5362059364   -1.4858318221   -2.1510469464
H        1.4153451493    2.5751937051    0.7444881832
H        1.5537235484    1.8211317998   -0.8533493697
H        2.5320879098    1.2229164474    0.5063140612
H        0.4552711612   -0.4954256358    2.5384188776
H       -0.6051698864    0.9078714603    2.4924879809
H        1.1438592399    1.1202515374    2.6576202884
22   
Generated by ForceBalance from scan.xyz: Frame 13 of 24
C       -1.0398291325   -1.0454499977   -0.0235761953
C        0.4490094680   -0.7275079569   -0.1136325109
C        0.4685939330    0.6358311003    0.6363918851
C        1.2971969965   -1.8570675854    0.4769452933
C        0.7715079661   -0.5765674039   -1.6193657697
C        1.5624251392    1.6086493798    0.2153291911
C        0.3855933408    0.5100617403    2.1754471391
O       -1.6103712848   -2.1063222875   -0.0962817072
O       -1.7437595553    0.1185989799    0.1685383606
O       -0.7785359024    1.2204251880    0.1421882618
H        2.3462421063   -1.5490138202    0.5412989898
H        1.2394191920   -2.7350240983   -0.1711357360
H        0.9617219935   -2.1668349475    1.4678552878
H        1.8440265051   -0.4145068471   -1.7621154407
H        0.2256906831    0.2541856369   -2.0728003534
H        0.4966280318   -1.4956654759   -2.1440556610
H        1.4060227969    2.5750224264    0.7031096904
H        1.5859054582    1.7663626841   -0.8631436792
H        2.5333623532    1.2210213376    0.5401040341
H        0.7734193587   -0.4336078402    2.5576757133
H       -0.6508332312    0.6282346057    2.4987779798
H        0.9559682361    1.3142767821    2.6485659906
22   
Generated by ForceBalance from scan.xyz: Frame 14 of 24
C       -1.0325763490   -0.9831599803   -0.0787204234
C        0.4615693782   -0.6849129232   -0.1399177114
C        0.4932561742    0.6719098590    0.6219800193
C        1.2751054125   -1.8317465453    0.4659544405
C        0.8145044335   -0.5327807165   -1.6381015142
C        1.6012237089    1.6356013170    0.2191216915
C        0.4065481838    0.5209697293    2.1524709617
O       -1.6153631754   -2.0348840540   -0.1816453129
O       -1.7248076896    0.1847681028    0.1277584993
O       -0.7482957440    1.2753146068    0.1367819990
H        2.3306950712   -1.5495767692    0.5417781755
H        1.2029840062   -2.7119266177   -0.1776533551
H        0.9181016899   -2.1239128560    1.4549940165
H        1.8911693018   -0.3819281445   -1.7602696396
H        0.2866742948    0.3059230076   -2.0985850848
H        0.5388657864   -1.4466493239   -2.1714427880
H        1.4485535091    2.6016485386    0.7083998888
H        1.6391144966    1.7973804521   -0.8583204743
H        2.5646688191    1.2374074780    0.5533478262
H        1.0288987911   -0.2870336165    2.5376037439
H       -0.6308229639    0.3743077470    2.4626313965
H        0.7376819721    1.4494874006    2.6271409156
22   
Generated by ForceBalance from scan.xyz: Frame 15 of 24
C       -1.0441470792   -0.9695401127   -0.0666471179
C        0.4550040909   -0.6933433373   -0.1239041010
C        0.5084918203    0.6597296121    0.6395237080
C        1.2444165491   -1.8493617205    0.4957172547
C        0.8176774634   -0.5522943036   -1.6197246364
C        1.6220522532    1.6145980755    0.2299152831
C        0.4444304835    0.5001320355    2.1649743347
O       -1.6410138293   -2.0117709468   -0.1861199701
O       -1.7205524874    0.2032153612    0.1589215317
O       -0.7320567307    1.2825634109    0.1790184624
H        2.3113263463   -1.6042617564    0.5308964019
H        1.1199531133   -2.7469582938   -0.1151483913
H        0.9073157080   -2.0915914604    1.5052060610
H        1.8957376286   -0.4078304484   -1.7368964789
H        0.2974985256    0.2872288405   -2.0878043628
H        0.5390011869   -1.4670880235   -2.1499548468
H        1.5022413204    2.5712698365    0.7458886872
H        1.6294850575    1.8017021507   -0.8442181083
H        2.5884432812    1.1920373978    0.5228396397
H        1.2424989175   -0.1396921127    2.5460342162
H       -0.5260721651    0.1060431020    2.4779656177
H        0.5482218209    1.4843534973    2.6309168370
22   
Generated by ForceBalance from scan.xyz: Frame 16 of 24
C       -1.0478783645   -0.9367339804   -0.0994173085
C        0.4553587559   -0.6754275367   -0.1403865094
C        0.5112702483    0.6733059814    0.6224520082
C        1.2298284833   -1.8326654824    0.4947076379
C        0.8367916066   -0.5398145266   -1.6316848304
C        1.6371555627    1.6215442486    0.2266344544
C        0.4367812935    0.5146273154    2.1452129499
O       -1.6533149244   -1.9734195581   -0.2241242134
O       -1.7157481529    0.2428458501    0.1159623555
O       -0.7160365690    1.3137588872    0.1530958909
H        2.3026379268   -1.6124462777    0.4996383981
H        1.0701764809   -2.7439076361   -0.0871664006
H        0.9110692610   -2.0357524652    1.5187949347
H        1.9157456893   -0.3919098250   -1.7353529648
H        0.3204219917    0.2967135392   -2.1093305794
H        0.5677039008   -1.4573664599   -2.1620891347
H        1.5517161260    2.5589859608    0.7832377141
H        1.6195304496    1.8515974457   -0.8392814796
H        2.6015236423    1.1673697855    0.4744794555
H        1.3508907028    0.0637398724    2.5403836006
H       -0.4154758390   -0.0999206352    2.4479341086
H        0.3143264019    1.5009228706    2.6004971818
22   
Generated by ForceBalance from scan.xyz: Frame 17 of 24
C       -1.0611513407   -0.9109550540   -0.1911941478
C        0.4422244134   -0.6433566111   -0.2072396306
C        0.4733308027    0.6993128772    0.5612080997
C        1.2210725831   -1.7941125566    0.4335540493
C        0.8457479379   -0.4960538324   -1.6916592644
C        1.6046471136    1.6558628693    0.1979771333
C        0.3632369567    0.5440641566    2.0839323589
O       -1.6602077194   -1.9505391458   -0.3225213216
O       -1.7369213872    0.2678871090    0.0056659881
O       -0.7392884106    1.3427683227    0.0606604221
H        2.2938550173   -1.5744087598    0.4236779026
H        1.0545634628   -2.7120107145   -0.1359083437
H        0.9157901125   -1.9850429679    1.4639832679
H        1.9237858882   -0.3308385658   -1.7767995203
H        0.3245424284    0.3345278503   -2.1742661007
H        0.5998625692   -1.4155670121   -2.2298730835
H        1.5268722131    2.5722962864    0.7899133560
H        1.5833461201    1.9252604558   -0.8588070102
H        2.5673035120    1.1873037085    0.4241532517
H        1.3423454256    0.3142644035    2.5153043627
H       -0.3171964198   -0.2599890840    2.3760355069
H        0.0059191623    1.4826850499    2.5137142440
22   
Generated by ForceBalance from scan.xyz: Frame 18 of 24
C       -1.0693344069   -0.8985047416   -0.1713213713
C        0.4377117401   -0.6524568574   -0.2006151494
C        0.4866996024    0.6904312445    0.5653470258
C        1.2157829034   -1.8112308399    0.4256676769
C        0.8280177037   -0.5056972578   -1.6892218117
C        1.6346877299    1.6289992253    0.2059299386
C        0.3582719535    0.5535384411    2.0936051905
O       -1.6856982654   -1.9301583011   -0.2825328656
O       -1.7253000253    0.2950200511    0.0091726218
O       -0.7074766601    1.3535716299    0.0467434427
H        2.2897785552   -1.5989856712    0.4006561048
H        1.0349782199   -2.7255736692   -0.1451966066
H        0.9260752178   -2.0064972270    1.4595458595
H        1.9068244265   -0.3513034861   -1.7843386892
H        0.3105168514    0.3309036599   -2.1649878234
H        0.5683657954   -1.4218897723   -2.2266476069
H        1.5648202578    2.5482988397    0.7947287662
H        1.6259477156    1.8951265615   -0.8518641815
H        2.5883606978    1.1473697895    0.4424719095
H        1.3505117274    0.5573797528    2.5557999237
H       -0.1220000058   -0.3764867550    2.4054310035
H       -0.2070106663    1.4030128593    2.4820040955
22   
Generated by ForceBalance from scan.xyz: Frame 19 of 24
C       -1.0751939732   -0.8890577362   -0.1739949481
C        0.4330057003   -0.6541731795   -0.2076301526
C        0.4896418212    0.6889036746    0.5625359847
C        1.2096971244   -1.8242704597    0.3983524015
C        0.8161592017   -0.4982457259   -1.6981002005
C        1.6504569981    1.6135038803    0.2099872022
C        0.3359753610    0.5598755156    2.0953293180
O       -1.6999707459   -1.9165622888   -0.2749753132
O       -1.7204040215    0.3126620449   -0.0039062417
O       -0.6916367044    1.3606292688    0.0247288963
H        2.2834042955   -1.6094826114    0.3840367190
H        1.0345062152   -2.7256320268   -0.1944934606
H        0.9153826409   -2.0472884603    1.4249374032
H        1.8966521788   -0.3595569645   -1.7983988586
H        0.3080862461    0.3499972709   -2.1627887014
H        0.5402775671   -1.4056813719   -2.2423011070
H        1.5723031328    2.5440539776    0.7797836700
H        1.6695028139    1.8596090003   -0.8524102551
H        2.5947610777    1.1304507308    0.4796384762
H        1.2737279171    0.8242125348    2.5932539023
H        0.0886208118   -0.4488635474    2.4292787037
H       -0.4367476749    1.2512277080    2.4361241533
22   
Generated by ForceBalance from scan.xyz: Frame 20 of 24
C       -1.0676733150   -0.8194170534   -0.1989985666
C        0.4429814487   -0.6064211202   -0.2214775770
C        0.5192836814    0.7311165789    0.5640870237
C        1.1945584606   -1.8012500748    0.3698889285
C        0.8370086644   -0.4392462476   -1.7085137900
C        1.6982052897    1.6353838570    0.2224748692
C        0.3505695070    0.5869849940    2.0972614702
O       -1.7081234267   -1.8354338348   -0.3151766200
O       -1.6951165048    0.3900385070   -0.0156409216
O       -0.6509235617    1.4204178348    0.0225680179
H        2.2635008002   -1.5747086867    0.4437670384
H        1.0749077784   -2.6685288490   -0.2841626620
H        0.8311314817   -2.0896026598    1.3571809610
H        1.9219659850   -0.3348359742   -1.8025637144
H        0.3584725274    0.4317504289   -2.1621801637
H        0.5340852648   -1.3288278690   -2.2674983673
H        1.6121478113    2.5796335583    0.7678469450
H        1.7532229493    1.8563308917   -0.8439215999
H        2.6283009457    1.1495066697    0.5338943219
H        1.1577011555    1.1018842164    2.6247650062
H        0.3487311038   -0.4467769178    2.4430225893
H       -0.5931422171    1.0468775426    2.3970821727
22   
Generated by ForceBalance from scan.xyz: Frame 21 of 24
C       -1.0860483672   -0.8155462930   -0.1841361014
C        0.4254486294   -0.6147069525   -0.2128539445
C        0.5232519903    0.7257024738    0.5714094733
C        1.1612409898   -1.8208713177    0.3769390849
C        0.8144950776   -0.4546739426   -1.7019626952
C        1.7055586592    1.6177397887    0.2150030487
C        0.3726393789    0.5748850973    2.1029877792
O       -1.7349067469   -1.8261838420   -0.3020665138
O       -1.7030994414    0.3965161150    0.0097786353
O       -0.6537785934    1.4185096437    0.0454297132
H        2.2274799441   -1.5966205887    0.4878977702
H        1.0613917353   -2.6753886286   -0.2968498922
H        0.7657333962   -2.1285590883    1.3460944859
H        1.9010081998   -0.3752248901   -1.8025062087
H        0.3529720500    0.4272094764   -2.1523703281
H        0.4879031996   -1.3365325009   -2.2598710534
H        1.6087163789    2.5811787922    0.7236499814
H        1.7808457558    1.7998733309   -0.8572332801
H        2.6301704434    1.1454754470    0.5621707414
H        0.9892171467    1.3061518620    2.6305662784
H        0.6316345680   -0.4201768411    2.4646018717
H       -0.6688959049    0.7541234539    2.3805903345
22   
Generated by ForceBalance from scan.xyz: Frame 22 of 24
C       -1.0776579960   -0.7654404226   -0.2059972500
C        0.4366646152   -0.5867445518   -0.2174141114
C        0.5530386705    0.7481947453    0.5748095890
C        1.1388670582   -1.8085655023    0.3816003458
C        0.8453623954   -0.4307154381   -1.7011083283
C        1.7457138112    1.6278733113    0.2240338352
C        0.4096827796    0.5779207529    2.0988649824
O       -1.7387558745   -1.7649632808   -0.3482731858
O       -1.6805556704    0.4502304539    0.0056757250
O       -0.6206858323    1.4582291348    0.0646496229
H        2.2089280039   -1.6095106895    0.5035353157
H        1.0254938070   -2.6622213343   -0.2911183232
H        0.7243044940   -2.1019697750    1.3475376098
H        1.9338927985   -0.3656842786   -1.7892464936
H        0.4011708829    0.4581875086   -2.1555186402
H        0.5126380703   -1.3070714393   -2.2640115565
H        1.6587928800    2.5910504198    0.7346760986
H        1.8253249666    1.8121818080   -0.8475210512
H        2.6644727866    1.1444555747    0.5714553795
H        0.8066017412    1.4480252793    2.6263383076
H        0.9033956389   -0.3226798577    2.4660206058
H       -0.6483238686    0.4822505203    2.3586957049
22   
Generated by ForceBalance from scan.xyz: Frame 23 of 24
C       -1.0819552360   -0.7360451218   -0.2212927407
C        0.4354316858   -0.5794177153   -0.2183110876
C        0.5675971976    0.7489075838    0.5787856133
C        1.1077610551   -1.8098438246    0.3962880397
C        0.8630197724   -0.4332101372   -1.6967001463
C        1.7669975483    1.6211033012    0.2312783372
C        0.4347070784    0.5642942970    2.0966403752
O       -1.7541616405   -1.7249697395   -0.3858239085
O       -1.6712412239    0.4821063831    0.0066549088
O       -0.6019020967    1.4779889850    0.0869023042
H        2.1876202686   -1.6488579311    0.4829286341
H        0.9421293050   -2.6772240314   -0.2475334481
H        0.7098317782   -2.0557147044    1.3825091450
H        1.9527479253   -0.3734969420   -1.7723062202
H        0.4289294339    0.4560526815   -2.1605139441
H        0.5319918936   -1.3101272195   -2.2597662870
H        1.7031024313    2.5729231653    0.7659241486
H        1.8292748601    1.8302957801   -0.8369672880
H        2.6856289497    1.1173671258    0.5485376073
H        0.6118367546    1.5121383802    2.6100155467
H        1.1310324868   -0.1874556605    2.4740240746
H       -0.5736153000    0.2254693178    2.3523238899
22   
Generated by ForceBalance from scan.xyz: Frame 24 of 24
C       -1.0797057469   -0.7011369609   -0.2496184796
C        0.4399923607   -0.5603151876   -0.2321969461
C        0.5755533896    0.7612662215    0.5678912030
C        1.0961349359   -1.7916188365    0.3970723700
C        0.8845577949   -0.4199247782   -1.7054339375
C        1.7863455665    1.6253829832    0.2353816868
C        0.4340450621    0.5724214238    2.0824216591
O       -1.7605044830   -1.6826197729   -0.4228370244
O       -1.6593036364    0.5226280960   -0.0254604729
O       -0.5799180945    1.5086747368    0.0744547171
H        2.1818633256   -1.6573515606    0.4483878226
H        0.8888093670   -2.6716460455   -0.2169034080
H        0.7222607172   -1.9960020701    1.4020611080
H        1.9749213677   -0.3574410609   -1.7684236433
H        0.4543571561    0.4669601837   -2.1775741767
H        0.5621108968   -1.2995863047   -2.2692137422
H        1.7532098310    2.5550617535    0.8102501891
H        1.8276810637    1.8778898272   -0.8247696841
H        2.7020193447    1.0914321769    0.5077245348
H        0.3913887338    1.5512099523    2.5668119648
H        1.2819610593    0.0158136450    2.4902394549
H       -0.4810469495    0.0298486891    2.3358104665
