19   

C        1.7384419166   -1.2550414140   -0.1122797049
C        0.7594316958   -0.5075775936    0.5303299539
C        2.7566132237   -1.8501374512    0.6347322546
C        0.8073010010   -0.3576061270    1.9153937918
C        2.8280617124   -1.7222434619    2.0404848157
C        1.8262642399   -0.9506732063    2.6864757229
C        3.9374114945   -2.3782579180    2.7466363214
C        1.8205882530   -0.7129791478    4.1780480033
N        4.0768571209   -2.6267519415    4.0910981816
N        5.0301618460   -2.8515689983    2.1031537344
N        5.2770297742   -3.2535563475    4.2090870232
N        5.8283600971   -3.3841371843    3.0607115000
H        1.7153430760   -1.3773121856   -1.1884326285
H       -0.0339061197   -0.0418627714   -0.0418556586
H        3.5107555479   -2.4302256868    0.1154791355
H        0.0396935682    0.2333955309    2.3998319454
H        1.6340956462   -1.6524085980    4.7071425169
H        2.7825631402   -0.3020116866    4.4992558393
H        1.0397017595   -0.0015160350    4.4605778587
19   

C        1.7129375227   -1.2940503924   -0.1207867009
C        0.7450748053   -0.5273952257    0.5192876192
C        2.7303750283   -1.8896769011    0.6275689474
C        0.8041279342   -0.3562382732    1.9025891949
C        2.8048605819   -1.7452875433    2.0284876693
C        1.8220583411   -0.9504426122    2.6730367226
C        3.9194818294   -2.3869559898    2.7407815494
C        1.8515888138   -0.6869226606    4.1595308170
N        3.9559085934   -2.8265542978    4.0413762627
N        5.1183903895   -2.6198858990    2.1598426355
N        5.2106010881   -3.3260489634    4.1994006502
N        5.8819064946   -3.2075950032    3.1139400634
H        1.6822554249   -1.4285951200   -1.1952684351
H       -0.0467379236   -0.0606988282   -0.0541979160
H        3.4837829293   -2.4827233358    0.1216209981
H        0.0492486337    0.2523802763    2.3852102988
H        1.5998733073   -1.6006484638    4.7063001795
H        2.8469645659   -0.3497438535    4.4649110652
H        1.1321412332    0.0891074725    4.4351947385
19   

C        1.7018344231   -1.3117163688   -0.1259327527
C        0.7477904626   -0.5265565812    0.5158737911
C        2.7149296596   -1.9180839823    0.6206142904
C        0.8167249826   -0.3454997598    1.8986290344
C        2.7904109276   -1.7678567995    2.0176848014
C        1.8298562457   -0.9513841609    2.6651502867
C        3.9059646115   -2.4037067755    2.7384499902
C        1.8880639145   -0.6855885607    4.1499699793
N        3.8595510077   -3.0319565544    3.9574609290
N        5.1751592333   -2.4030973753    2.2762030273
N        5.1448365774   -3.4126226985    4.1879985220
N        5.9038012597   -3.0508678213    3.2191042017
H        1.6642329869   -1.4500067126   -1.1997019989
H       -0.0398452648   -0.0514252368   -0.0564300257
H        3.4660188887   -2.5214531833    0.1234471997
H        0.0758343962    0.2788182711    2.3828577344
H        1.6063228330   -1.5875489912    4.7015675059
H        2.9012672807   -0.3930999869    4.4430191135
H        1.2053194646    0.1210848708    4.4309542432
19   

C        2.0351236779   -0.7401681443   -0.1290701658
C        0.8618365541   -0.3414554393    0.5086925759
C        3.0419896500   -1.3722510305    0.6053525496
C        0.7042672645   -0.5687559026    1.8782659963
C        2.8906584990   -1.6312339081    1.9777833104
C        1.7084956498   -1.2058518280    2.6301188222
C        4.0016554027   -2.2597225452    2.7199436545
C        1.5218273900   -1.3995210164    4.1151247129
N        3.9284516721   -3.3778795160    3.5095857568
N        5.2484913278   -1.7466455279    2.7605333720
N        5.1890850555   -3.5175140743    4.0017985944
N        5.9503453567   -2.5783841016    3.5703876361
H        2.1711256760   -0.5573960995   -1.1881220474
H        0.0778406001    0.1508061249   -0.0540453607
H        3.9642011999   -1.6737417692    0.1220344344
H       -0.2069292058   -0.2420388201    2.3641817699
H        1.4039637064   -2.4637368933    4.3403836347
H        2.3936059232   -1.0199539921    4.6574389145
H        0.6355657862   -0.8675135267    4.4718894648
19   

C        2.0221876126   -0.7555440249   -0.1439809501
C        0.8571550016   -0.3442240992    0.5031948949
C        3.0361781222   -1.3821493821    0.5861168001
C        0.7126172966   -0.5554260901    1.8775284785
C        2.8974648847   -1.6165616502    1.9627401206
C        1.7241320840   -1.1859711032    2.6243539574
C        4.0014419009   -2.2501989891    2.7188404210
C        1.5569965957   -1.3824691814    4.1109952159
N        3.9850476101   -3.5049568555    3.2674381952
N        5.1577401764   -1.6256035124    3.0155042546
N        5.1913641585   -3.6052152423    3.8890185180
N        5.8677260805   -2.5234304542    3.7438177841
H        2.1449955366   -0.5878197010   -1.2071170845
H        0.0681204619    0.1430899939   -0.0568004849
H        3.9509610514   -1.6973028076    0.0979202441
H       -0.1932803049   -0.2234066090    2.3696999202
H        1.5105353665   -2.4509611080    4.3426970261
H        2.4068702142   -0.9457202878    4.6450094615
H        0.6400935318   -0.9066698669    4.4696799888
19   

C        2.0190235705   -0.7821086655   -0.1503747230
C        0.8616004046   -0.3513086128    0.4987480157
C        3.0362864401   -1.3995794259    0.5832681719
C        0.7250747180   -0.5389365174    1.8776323919
C        2.9114550334   -1.5936233301    1.9668733952
C        1.7406401997   -1.1585090924    2.6278390218
C        4.0006464738   -2.2497473894    2.7296371082
C        1.5774294735   -1.3534899113    4.1148718790
N        4.1205631914   -3.5935134743    2.9593414925
N        5.0230584174   -1.5822189202    3.2959847654
N        5.2605922199   -3.6960030776    3.6954743309
N        5.7815365684   -2.5381362563    3.8890091866
H        2.1316802229   -0.6397120909   -1.2183143788
H        0.0699053509    0.1279789917   -0.0644092348
H        3.9412335289   -1.7389559289    0.0931157001
H       -0.1783066686   -0.1998977206    2.3696316158
H        1.6283280639   -2.4191860002    4.3592032385
H        2.3792070344   -0.8344592234    4.6494399591
H        0.6167329146   -0.9613986870    4.4599611052
19   

C        2.0163713207   -0.8108400860   -0.1449796026
C        0.8673359449   -0.3530579563    0.4994143909
C        3.0318690176   -1.4191448759    0.5983519218
C        0.7356728172   -0.5102953622    1.8821654475
C        2.9214957066   -1.5676318704    1.9894390053
C        1.7504629420   -1.1195608555    2.6421232130
C        3.9981609506   -2.2489430616    2.7439291312
C        1.5785551032   -1.2985964172    4.1302988839
N        4.3251693577   -3.5743982778    2.6467154259
N        4.8598830434   -1.6116876866    3.5592653039
N        5.3993441367   -3.7055195010    3.4719408061
N        5.7085473463   -2.5752188150    3.9973242975
H        2.1227910297   -0.6998197336   -1.2172763178
H        0.0763303312    0.1186890178   -0.0710279699
H        3.9260883185   -1.7881768708    0.1095597028
H       -0.1651281428   -0.1578919344    2.3694874989
H        1.6973147257   -2.3535357824    4.3968844068
H        2.3342942319   -0.7155601497    4.6655918841
H        0.5879851815   -0.9674687891    4.4542087792
19   

C        2.0175070768   -0.8413082955   -0.1367630220
C        0.8753798724   -0.3520772960    0.4944407524
C        3.0183261835   -1.4550978325    0.6210968771
C        0.7357360407   -0.4860023498    1.8781323219
C        2.9062723215   -1.5765858363    2.0161713816
C        1.7362815276   -1.0996010505    2.6540212287
C        3.9688229597   -2.2750414679    2.7657164490
C        1.5354309589   -1.2620493098    4.1409850493
N        4.4900016573   -3.5007436113    2.4457733968
N        4.6573535591   -1.7310448502    3.7899223344
N        5.4855352619   -3.6818648942    3.3555810072
N        5.5829151898   -2.6625651918    4.1300399440
H        2.1299121260   -0.7518099884   -1.2104690233
H        0.0948998580    0.1237925731   -0.0869727518
H        3.9051184093   -1.8501788667    0.1386842632
H       -0.1623680522   -0.1125174579    2.3546381046
H        1.7153038818   -2.3009545209    4.4348351751
H        2.2334898057   -0.6175774870    4.6837942130
H        0.5158020518   -0.9934342185    4.4308160893
19   

C        2.0025707808   -0.8660270236   -0.1323674007
C        0.8738740320   -0.3555365830    0.5031942610
C        3.0008120546   -1.4860358413    0.6228235178
C        0.7458312915   -0.4750245335    1.8884451398
C        2.9027742339   -1.5971760763    2.0219132325
C        1.7436361935   -1.0946941457    2.6641849726
C        3.9744814546   -2.2924191061    2.7533898635
C        1.5306940022   -1.2423375980    4.1517187020
N        4.6643416051   -3.3832874763    2.2900901515
N        4.5039126765   -1.8806023832    3.9255309946
N        5.5928172856   -3.6244050364    3.2548026630
N        5.5011104716   -2.7587271213    4.1976010767
H        2.1076823624   -0.7875001399   -1.2076823164
H        0.0947196196    0.1255821648   -0.0756794219
H        3.8774688983   -1.8923320732    0.1310531430
H       -0.1438376240   -0.0850984190    2.3676372581
H        1.7380364862   -2.2704813055    4.4645308339
H        2.1985291549   -0.5655263950    4.6931171202
H        0.4990738247   -1.0043585828    4.4254466057
19   

C        1.9927542079   -0.8803940684   -0.1334587919
C        0.8745742015   -0.3541664525    0.5043404761
C        2.9882869362   -1.5052167341    0.6201946001
C        0.7558317855   -0.4622172368    1.8902885064
C        2.8998683855   -1.6129742853    2.0227449082
C        1.7500598044   -1.0878931681    2.6673893615
C        3.9847233421   -2.2993167802    2.7395063757
C        1.5247641619   -1.2126900096    4.1559626469
N        4.8246099708   -3.2320817587    2.1830944914
N        4.3631397251   -2.0580804643    4.0145574999
N        5.6888220829   -3.5494277801    3.1842028998
N        5.4233101965   -2.8728043831    4.2407263234
H        2.0933520763   -0.8090223567   -1.2097183720
H        0.0969190395    0.1315023185   -0.0727597879
H        3.8569668745   -1.9160040992    0.1182234898
H       -0.1268624833   -0.0574012322    2.3700609485
H        1.6891398458   -2.2450851129    4.4797199663
H        2.2115205909   -0.5532809064    4.6951988820
H        0.5012943097   -0.9350587117    4.4227857168
19   

C        1.9751746687   -0.9092803357   -0.1273219456
C        0.8636844000   -0.3743236569    0.5117936300
C        2.9736800427   -1.5284506160    0.6260393656
C        0.7566937370   -0.4661702346    1.8989347604
C        2.8958956685   -1.6285105727    2.0320643820
C        1.7533187832   -1.0870386955    2.6784127058
C        3.9953571539   -2.2994207211    2.7397823891
C        1.5301765781   -1.1696102696    4.1709820882
N        4.9751440892   -3.0481038444    2.1329050243
N        4.2340750000   -2.2555283306    4.0704810047
N        5.7819486601   -3.4490449541    3.1512460860
N        5.3548317541   -2.9920370968    4.2697954584
H        2.0695462616   -0.8480694562   -1.2047828936
H        0.0833289873    0.1079011558   -0.0645637502
H        3.8359975105   -1.9406250766    0.1146513784
H       -0.1205828781   -0.0495328723    2.3785227194
H        1.6103581621   -2.2070787030    4.5096076769
H        2.2692229073   -0.5571746927    4.6963502641
H        0.5349258713   -0.8061575954    4.4413100638
19   

C        1.9490654058   -0.9392299339   -0.1206441997
C        0.8401433450   -0.4037151612    0.5211323217
C        2.9563331120   -1.5452181249    0.6313393196
C        0.7468496490   -0.4782176455    1.9099013679
C        2.8896277786   -1.6356760368    2.0395685775
C        1.7523652063   -1.0857150915    2.6891941157
C        4.0006950205   -2.2926900077    2.7421174567
C        1.5537867751   -1.1137793157    4.1875480629
N        5.1070252424   -2.8291813352    2.1268050399
N        4.1128394592   -2.4722962588    4.0784265762
N        5.8625817438   -3.3241668398    3.1428340457
N        5.2891787736   -3.1184640701    4.2699204813
H        2.0350260264   -0.8885766765   -1.1993624340
H        0.0529187214    0.0687630160   -0.0539591277
H        3.8146631812   -1.9578497567    0.1138339414
H       -0.1260297997   -0.0545751146    2.3913616497
H        1.5254242803   -2.1473226401    4.5457395642
H        2.3655821229   -0.5758853437    4.6865221526
H        0.6119173697   -0.6355364778    4.4700802396
19   

C        1.9397291278   -0.9759629423   -0.1335139182
C        0.8298278609   -0.4379793962    0.5058232789
C        2.9529088891   -1.5676193264    0.6223610931
C        0.7431597671   -0.4916919100    1.8963802828
C        2.8879203361   -1.6436113369    2.0305377487
C        1.7547527206   -1.0844898192    2.6784273693
C        4.0035603975   -2.2841938382    2.7410324163
C        1.5877687242   -1.0618279789    4.1804203800
N        5.2141962886   -2.6012214591    2.1730064245
N        4.0017280163   -2.6898776219    4.0314136977
N        5.9202590739   -3.1903402524    3.1745676633
N        5.2211477668   -3.2418017728    4.2474333644
H        2.0217086350   -0.9380214549   -1.2130575041
H        0.0384616727    0.0236015848   -0.0724206724
H        3.8127860428   -1.9844142437    0.1106087445
H       -0.1263948039   -0.0605667904    2.3772249632
H        1.4549221074   -2.0795936716    4.5596094686
H        2.4648991943   -0.6090687178    4.6527414775
H        0.7120151740   -0.4748979221    4.4707098827
19   

C        1.9090915284   -1.0029488902   -0.1125711622
C        0.8082647548   -0.4509584751    0.5335650731
C        2.9278874589   -1.5921169159    0.6387086606
C        0.7366043825   -0.4855532399    1.9265008296
C        2.8717613131   -1.6541421603    2.0457227526
C        1.7538471665   -1.0763453883    2.7011190506
C        3.9940132613   -2.2776808864    2.7619233294
C        1.6297405263   -1.0282858832    4.2059243033
N        5.2713319800   -2.3887778549    2.2706952535
N        3.9187161950   -2.8978611801    3.9607069138
N        5.9471557730   -3.0694217052    3.2349154253
N        5.1677585742   -3.3633119822    4.2099156462
H        1.9798369954   -0.9761963372   -1.1932317263
H        0.0136623196    0.0090271253   -0.0414898276
H        3.7852115611   -2.0187879990    0.1305042728
H       -0.1220249073   -0.0408617929    2.4145679021
H        1.4306187552   -2.0304230017    4.5974562929
H        2.5533201346   -0.6454587218    4.6510358273
H        0.8108684053   -0.3711963043    4.5116078599
19   

C        1.9022675584   -1.0184997903   -0.1187446344
C        0.8082541470   -0.4504653808    0.5285269528
C        2.9191408663   -1.6121579694    0.6327588243
C        0.7410877737   -0.4719041018    1.9230179227
C        2.8608232298   -1.6648955661    2.0374840594
C        1.7560233698   -1.0682433815    2.6948031379
C        3.9825596008   -2.2750299477    2.7698264874
C        1.6579629244   -1.0183133115    4.2007196823
N        5.3014610135   -2.1880987066    2.4044585320
N        3.8556228128   -3.0999417212    3.8315526837
N        5.9514449587   -2.9592032931    3.3175824538
N        5.1188726661   -3.4851778037    4.1402928684
H        1.9693741289   -0.9988421697   -1.1997749218
H        0.0161697853    0.0129695781   -0.0472186129
H        3.7768489388   -2.0482495310    0.1331558637
H       -0.1094295706   -0.0143702168    2.4133870246
H        1.4310306511   -2.0142339197    4.5929388784
H        2.6036226994   -0.6745666485    4.6314017903
H        0.8688371611   -0.3316781125    4.5194904676
19   

C        1.8963104475   -1.0356747728   -0.1187592572
C        0.8151779462   -0.4424168565    0.5304090711
C        2.9077494072   -1.6406419827    0.6320697856
C        0.7545543607   -0.4496902323    1.9262252964
C        2.8512657270   -1.6791376454    2.0352382057
C        1.7644236525   -1.0571433436    2.6948285437
C        3.9675159454   -2.2887608050    2.7842942818
C        1.6866159015   -1.0128058848    4.2014027188
N        5.2953449427   -2.0127009415    2.5919294902
N        3.8267416922   -3.2988994247    3.6668802680
N        5.9342250072   -2.8689925514    3.4346872361
N        5.0888838831   -3.6106657626    4.0540052852
H        1.9575472128   -1.0256275474   -1.2002573944
H        0.0280649762    0.0294998101   -0.0452563603
H        3.7592571263   -2.0941920462    0.1376632680
H       -0.0849052741    0.0256796859    2.4186398078
H        1.4991719819   -2.0166341178    4.5944254742
H        2.6291040099   -0.6429674594    4.6172955295
H        0.8807201264   -0.3523978882    4.5333579726
19   

C        1.8704606643   -1.0546424608   -0.1293046042
C        0.8092873189   -0.4414292939    0.5362563297
C        2.8870049507   -1.6701147646    0.6066597276
C        0.7716087158   -0.4409003472    1.9336251865
C        2.8533038840   -1.6931356259    2.0094025463
C        1.7874170653   -1.0575900166    2.6861989474
C        3.9635459484   -2.3212377786    2.7613959464
C        1.7382438616   -1.0266826134    4.1938129508
N        5.2507584223   -1.8596218992    2.8180610140
N        3.8569347220   -3.4949659592    3.4128803299
N        5.8984915887   -2.7939876957    3.5660208788
N        5.0965192648   -3.7367921504    3.9083289030
H        1.9111253495   -1.0527083520   -1.2118078875
H        0.0186043014    0.0379110412   -0.0282727079
H        3.7225637259   -2.1421927558    0.1029588663
H       -0.0537101475    0.0458543173    2.4386319534
H        1.6372748897   -2.0439779414    4.5843598434
H        2.6605352360   -0.5900794162    4.5898237019
H        0.8918990779   -0.4312888960    4.5473645298
19   

C        1.8482178679   -1.0720759254   -0.1390923794
C        0.8045628729   -0.4377976185    0.5354729389
C        2.8740286276   -1.6827018770    0.5883561828
C        0.7898098279   -0.4160937756    1.9334916588
C        2.8707783298   -1.6678791825    1.9909939390
C        1.8153108104   -1.0264682970    2.6776962954
C        3.9666648118   -2.3211818288    2.7465600194
C        1.7844162581   -0.9938501689    4.1856395759
N        5.1318352046   -1.7238200046    3.1445449120
N        3.9413501959   -3.6094885617    3.1355332295
N        5.7986986865   -2.7156630068    3.7953892374
N        5.1141466825   -3.8023299560    3.7898293458
H        1.8659194114   -1.0930275325   -1.2220100228
H        0.0067259865    0.0370231064   -0.0227801594
H        3.6909461739   -2.1796559228    0.0784171213
H       -0.0260809382    0.0795017745    2.4451712157
H        1.7628745689   -2.0144282797    4.5805587064
H        2.6792122878   -0.4914279409    4.5663059081
H        0.9023004163   -0.4598446859    4.5496036892
19   

C        1.8273474792   -1.0902459904   -0.1360750859
C        0.7957997604   -0.4386859653    0.5397304554
C        2.8592003834   -1.6925848200    0.5894060700
C        0.7965116729   -0.3966445508    1.9370607993
C        2.8822410815   -1.6431000673    1.9916497692
C        1.8291141332   -0.9971011061    2.6798095479
C        3.9681802901   -2.3195676378    2.7367815640
C        1.7974202428   -0.9600215951    4.1878764713
N        4.9622057879   -1.7022724415    3.4484600458
N        4.0708075598   -3.6576991052    2.8548130915
N        5.6715666874   -2.7342688753    3.9808247672
N        5.1592158116   -3.8609273996    3.6388322030
H        1.8292913755   -1.1342044159   -1.2184500295
H       -0.0074482845    0.0290427582   -0.0167474764
H        3.6613444407   -2.2111801300    0.0774407193
H       -0.0149401913    0.1049329783    2.4499798095
H        1.8703196869   -1.9756075809    4.5897199626
H        2.6416416437   -0.3740587188    4.5639837155
H        0.8695630511   -0.5090887172    4.5504949575
19   

C        1.8159270230   -1.1052479411   -0.1279673206
C        0.7917548653   -0.4378132159    0.5412708805
C        2.8469706377   -1.7016493205    0.6027870927
C        0.7987715658   -0.3770215572    1.9371161951
C        2.8835714748   -1.6292174262    2.0052937515
C        1.8315385312   -0.9706701225    2.6858215172
C        3.9687841710   -2.3149232206    2.7343806191
C        1.7861100930   -0.9205072995    4.1934921392
N        4.8011306953   -1.7586530101    3.6708811201
N        4.2317044670   -3.6320631096    2.6076443522
N        5.5817075697   -2.7962893742    4.0770244340
N        5.2546201007   -3.8758808359    3.4646251474
H        1.8125783752   -1.1677807529   -1.2094331870
H       -0.0118145389    0.0252291821   -0.0186545449
H        3.6408062880   -2.2352565890    0.0928353367
H       -0.0100887677    0.1333517210    2.4454581648
H        1.9299211689   -1.9228633827    4.6091802964
H        2.5799932229   -0.2675575757    4.5684928329
H        0.8239601396   -0.5372153059    4.5444003235
19   

C        1.8115600464   -1.1220722167   -0.1177542689
C        0.7970170066   -0.4336636297    0.5421012161
C        2.8336650974   -1.7232023042    0.6206990266
C        0.8056140982   -0.3571096769    1.9362439562
C        2.8746337864   -1.6393703907    2.0247449221
C        1.8294205531   -0.9554532675    2.6944537541
C        3.9599924878   -2.3277345958    2.7434725150
C        1.7671405128   -0.8845849652    4.2010434837
N        4.6510348616   -1.8762608009    3.8395696530
N        4.3910727088   -3.5643991358    2.4127319845
N        5.5133503890   -2.8866434753    4.1321142252
N        5.3644302920   -3.8599793028    3.3098409343
H        1.8087924903   -1.1969838324   -1.1984480429
H       -0.0001397781    0.0335444145   -0.0235027972
H        3.6197032503   -2.2692882591    0.1114845309
H        0.0028135658    0.1701043640    2.4369687126
H        1.9144262235   -1.8792314233    4.6334712460
H        2.5484328272   -0.2163691151    4.5755286527
H        0.7970364538   -0.5071046986    4.5360393233
19   

C        1.8008122068   -1.1430730367   -0.1135877990
C        0.7982317808   -0.4343595448    0.5396753416
C        2.8149769411   -1.7510607668    0.6292617930
C        0.8127669138   -0.3431516801    1.9317025024
C        2.8618877488   -1.6617753798    2.0359765664
C        1.8281938520   -0.9488275322    2.6964931493
C        3.9514987207   -2.3480409588    2.7456013570
C        1.7580302600   -0.8482805687    4.2014574217
N        4.5098277956   -2.0275471307    3.9587107034
N        4.5575342931   -3.4537549456    2.2563246309
N        5.4619607681   -2.9772192412    4.1594642990
N        5.4904297534   -3.8003373494    3.1773273615
H        1.7967794397   -1.2272938617   -1.1936086346
H        0.0070288530    0.0389942658   -0.0291776670
H        3.5911288031   -2.3052202507    0.1136990342
H        0.0192398109    0.2032782837    2.4265878707
H        1.8565562475   -1.8405709879    4.6524324244
H        2.5627101294   -0.2056494505    4.5712147300
H        0.8027893016   -0.4238259245    4.5226549141
19   

C        1.7851214511   -1.1874483927   -0.1204028113
C        0.7952333964   -0.4554599229    0.5233215098
C        2.7929168127   -1.7972298403    0.6288528594
C        0.8181686100   -0.3410828243    1.9123846425
C        2.8473026993   -1.6936119805    2.0374209285
C        1.8268858853   -0.9486340175    2.6856255524
C        3.9413727971   -2.3720542649    2.7462663155
C        1.7602337612   -0.7999967254    4.1871971057
N        4.3618243573   -2.2061839640    4.0441019274
N        4.7209919248   -3.3071917447    2.1543707971
N        5.4021292107   -3.0688869590    4.1883441829
N        5.6104840044   -3.7051975414    3.0967460942
H        1.7779144026   -1.2872297000   -1.1990964880
H        0.0091450143    0.0204402928   -0.0504862982
H        3.5567952870   -2.3632137461    0.1082722148
H        0.0355280231    0.2281291739    2.3988588911
H        1.7762109330   -1.7839583703    4.6657651683
H        2.6102794944   -0.2106965136    4.5441242974
H        0.8410157932   -0.2923605201    4.4923727930
19   

C        1.7690019493   -1.2234259137   -0.1251564230
C        0.7811884302   -0.4865484684    0.5147003032
C        2.7815466817   -1.8227623491    0.6257991692
C        0.8131257102   -0.3543156793    1.9014723712
C        2.8426805552   -1.7077621576    2.0346118930
C        1.8264778898   -0.9514359991    2.6772974018
C        3.9456562309   -2.3727523235    2.7424947441
C        1.7803580108   -0.7543787654    4.1742560563
N        4.2170643276   -2.4062428313    4.0896770916
N        4.8977458642   -3.0862967864    2.0958680308
N        5.3456892172   -3.1542510083    4.2048851937
N        5.7398684133   -3.5478279235    3.0524417955
H        1.7571036301   -1.3348707748   -1.2026727845
H       -0.0083634881   -0.0180442056   -0.0604439463
H        3.5406506545   -2.3925026711    0.1026114507
H        0.0347202125    0.2239463534    2.3840471099
H        1.6934642209   -1.7212423653    4.6791663139
H        2.6876076565   -0.2468291602    4.5157220082
H        0.9217191874   -0.1431236383    4.4655775932
