29   

C        3.1035496182   -1.2030968108    1.7475705293
C        1.4094143841   -1.5964362224    0.0801021605
C        2.2017493645   -0.4164520759    2.4735292862
C        0.5139550419   -0.8075629407    0.8124700981
C        8.6198840836   -4.8922389661    2.0928951916
C        2.7327594007   -1.8046142647    0.5267251272
C        0.9008297984   -0.2086885441    2.0125516201
C        8.7125051323   -5.4066852314    0.8272829651
C        6.8303890479   -4.2771211091    0.5701293677
C        3.7024165726   -2.6399621917   -0.2168134320
C        9.8548956227   -6.2649956275    0.3804650443
C        3.4692370824   -3.0192585591   -1.6609711313
N        7.6922854037   -5.0439778784   -0.0420331892
N        4.7790732741   -3.0445971514    0.4268929789
N        5.7313935352   -3.8343936784   -0.1530658186
S        7.1883007814   -3.9127463020    2.2551142889
Cl      -0.2216723908    0.7730876919    2.9210344286
H        4.1037425516   -1.3357283800    2.1474641583
H        1.0390832136   -2.0530887764   -0.8288102933
H        2.5138337757    0.0377400180    3.4067078667
H       -0.4973292547   -0.6604227228    0.4515276215
H        9.3380632363   -5.0648474563    2.8840646069
H        9.5787552022   -7.3193244050    0.4681295083
H       10.0983058801   -6.0473159312   -0.6632950427
H       10.7387802249   -6.0742344510    0.9956403805
H        4.3787746014   -2.8489490290   -2.2441601336
H        3.2051098831   -4.0786449376   -1.7262216855
H        2.6817316832   -2.4232522321   -2.1245646713
H        5.6920569784   -4.1722183646   -1.1092321641
29   

C        3.1284952971   -1.0459908113    1.6552812826
C        1.3576945562   -1.7893400555    0.1977014003
C        2.2096946319   -0.2686614812    2.3701242487
C        0.4443881215   -1.0091682816    0.9171883645
C        8.6461430296   -4.8701768205    2.0732964986
C        2.7207557983   -1.8210723467    0.5526514399
C        0.8607745092   -0.2415816253    2.0077713657
C        8.7254222368   -5.3854154697    0.8070951066
C        6.8343394489   -4.2658333624    0.5729304485
C        3.7068963046   -2.6279424336   -0.1996191748
C        9.8255471192   -6.3019169679    0.3697767304
C        3.5191343883   -2.9059614776   -1.6734895488
N        7.6836969779   -5.0424241781   -0.0444749381
N        4.7652372802   -3.0595398121    0.4544349912
N        5.7283834880   -3.8245750111   -0.1403560468
S        7.2192562163   -3.8859455004    2.2483843989
Cl      -0.2829202882    0.7289164545    2.9018193197
H        4.1689882930   -1.0428034801    1.9642207219
H        0.9865825375   -2.3816140308   -0.6304198224
H        2.5450591250    0.3198823258    3.2160763626
H       -0.6012705851   -0.9991411718    0.6324404696
H        9.3650657154   -5.0540013770    2.8612489322
H        9.4317649376   -7.0530523493   -0.3207911191
H       10.6042053953   -5.7262858379   -0.1379237415
H       10.2625218656   -6.8121724379    1.2328084372
H        4.4213520409   -2.6238163743   -2.2239331237
H        3.3314136213   -3.9722442329   -1.8286437261
H        2.6870042737   -2.3325157804   -2.0883670390
H        5.6896742107   -4.1501182185   -1.1008370131
29   

C        3.1969415057   -0.8544876347    1.5023057106
C        1.4085632426   -1.9078045366    0.2737030797
C        2.2619441713   -0.0623809354    2.1791455773
C        0.4780706326   -1.1125808557    0.9535894251
C        8.6263770555   -4.9676059870    2.1600456947
C        2.7840038695   -1.7956411955    0.5432406672
C        0.8951406411   -0.1837849286    1.9117121434
C        8.7551844028   -5.4146519741    0.8722084083
C        6.8742067228   -4.2809589237    0.6247773861
C        3.7850856355   -2.6001014474   -0.1946948177
C        9.8717922105   -6.3085232488    0.4298143081
C        3.6586278056   -2.7858355416   -1.6899542826
N        7.7472776996   -5.0249609444    0.0003083983
N        4.8125517340   -3.0628703311    0.4843073022
N        5.7976010858   -3.8011918210   -0.1082151479
S        7.1934724847   -3.9914706201    2.3316718450
Cl      -0.2689345784    0.8059936749    2.7569676453
H        4.2528818791   -0.7408452876    1.7260611197
H        1.0531641577   -2.6220466695   -0.4605381198
H        2.5975481176    0.6541064252    2.9197461164
H       -0.5796215080   -1.2140636678    0.7401753470
H        9.3139450184   -5.1946084060    2.9645421635
H        9.5074710852   -7.0156898238   -0.3207512365
H       10.6731277888   -5.7073173187   -0.0081796518
H       10.2693358311   -6.8709373179    1.2793860408
H        4.5605442259   -2.4194141767   -2.1888038420
H        3.5319352884   -3.8467943079   -1.9234598698
H        2.8023959505   -2.2312943451   -2.0830979205
H        5.7993748123   -4.0747851061   -1.0855450591
29   

C        3.1945945422   -0.6967485437    1.3754722603
C        1.4329128500   -2.0557569383    0.4444382090
C        2.2396048097    0.0834491694    2.0382826563
C        0.4813810505   -1.2722743814    1.1087138954
C        8.5813589267   -5.0958119577    2.1797712717
C        2.8039912446   -1.7845038453    0.5790956423
C        0.8752822685   -0.1970398561    1.9117728113
C        8.7416839294   -5.4695583691    0.8722841899
C        6.8764266799   -4.3069196569    0.6404699860
C        3.8199422704   -2.5680245209   -0.1687465865
C        9.8625635192   -6.3475462406    0.4093535923
C        3.7329049996   -2.6503882328   -1.6765113982
N        7.7607961024   -5.0214181278   -0.0023468346
N        4.8242581762   -3.0710568963    0.5137605229
N        5.8233411414   -3.7781342648   -0.0929881763
S        7.1515342026   -4.1184233470    2.3689908478
Cl      -0.3142922191    0.7790067121    2.7372510259
H        4.2489013547   -0.4633632767    1.4831106851
H        1.1035274062   -2.8821205577   -0.1757149488
H        2.5566064818    0.9150252750    2.6567189130
H       -0.5737900555   -1.4956851468    1.0026791121
H        9.2449511093   -5.3748086725    2.9880324371
H        9.5132336274   -7.0064286506   -0.3906553049
H       10.6809083587   -5.7302092945    0.0290729487
H       10.2314063593   -6.9621975969    1.2353615653
H        4.6316510432   -2.2186361938   -2.1263260073
H        3.6472341691   -3.6951205488   -1.9884663011
H        2.8617785979   -2.0995775217   -2.0424482555
H        5.8517711728   -3.9945727631   -1.0841390696
29   

C        3.1355292131   -0.5266297060    1.1914526255
C        1.5006931813   -2.2121226020    0.6401358266
C        2.1465815912    0.2145302767    1.8494783840
C        0.5143797053   -1.4674457083    1.2982782516
C        8.5144715596   -5.2264853212    2.1985011448
C        2.8251535144   -1.7529678542    0.5870476221
C        0.8277571515   -0.2483107761    1.9086432090
C        8.7153215858   -5.5268623434    0.8777827414
C        6.8720235974   -4.3287071679    0.6509312636
C        3.8697234008   -2.5044761948   -0.1649324797
C        9.8415943280   -6.3914798140    0.4029086657
C        3.8223741245   -2.5064553167   -1.6770567680
N        7.7699290305   -5.0167479625   -0.0019837207
N        4.8397695227   -3.0598862481    0.5245016005
N        5.8509100832   -3.7456643243   -0.0866295262
S        7.0897472381   -4.2432493118    2.3956714161
Cl      -0.4051076375    0.6799259896    2.7256979268
H        4.1536093175   -0.1536807783    1.1532419446
H        1.2374739624   -3.1528885929    0.1692105358
H        2.4005141580    1.1576411196    2.3190946863
H       -0.5048801534   -1.8336435149    1.3374443382
H        9.1469340479   -5.5596445990    3.0111890498
H        9.5122522914   -6.9996739901   -0.4443239180
H       10.6789107238   -5.7641278596    0.0855222817
H       10.1757667117   -7.0564150972    1.2043597471
H        4.7269280634   -2.0414685192   -2.0794912576
H        3.7562111259   -3.5334256383   -2.0472583351
H        2.9519594170   -1.9466710424   -2.0314577873
H        5.9129296453   -3.9042681648   -1.0871412909
29   

C        3.0034815596   -0.3343971224    0.9185717896
C        1.6776434738   -2.3478872689    0.8599659048
C        1.9672034662    0.3257848646    1.5901135139
C        0.6432040033   -1.6842943379    1.5306907840
C        8.3997039741   -5.3778389464    2.2277009525
C        2.8677903795   -1.6776422547    0.5427311068
C        0.7772687047   -0.3415979887    1.8997440083
C        8.6546354013   -5.6114151834    0.9028103837
C        6.8638806790   -4.3391446204    0.6589578704
C        3.9649478917   -2.3725855586   -0.1962605202
C        9.7746814346   -6.4862645584    0.4318840878
C        3.9609854567   -2.3338121619   -1.7087062093
N        7.7697854676   -5.0209071964    0.0104661120
N        4.8802293336   -2.9973672824    0.5077720637
N        5.8994712486   -3.6813398334   -0.0919067498
S        6.9988382346   -4.3587806722    2.4139653744
Cl      -0.5155167581    0.4851458770    2.7330303911
H        3.9211998719    0.1968050034    0.6904356613
H        1.5592608342   -3.3903306399    0.5848868244
H        2.0834615758    1.3643944942    1.8769270823
H       -0.2725332269   -2.2120300606    1.7703054822
H        8.9814630467   -5.7765502250    3.0487046733
H        9.4621397592   -7.0462313858   -0.4540746891
H       10.6404618297   -5.8698520096    0.1752434912
H       10.0593048623   -7.1957010300    1.2140770022
H        4.8804552371   -1.8662669426   -2.0723712735
H        3.8967087663   -3.3497337701   -2.1086505248
H        3.1047889883   -1.7573818197   -2.0711125813
H        6.0066638068   -3.7859536027   -1.0956938414
29   

C        2.9266190872   -0.2049464314    0.7402586567
C        1.8909938751   -2.3438275483    1.1472008400
C        1.9100393152    0.4232367658    1.4702023834
C        0.8763294281   -1.7123768097    1.8763394090
C        8.1357926586   -5.7396621314    2.1602236429
C        2.9194927134   -1.5953817800    0.5557691179
C        0.8740195008   -0.3234362243    2.0410717438
C        8.5361217981   -5.7608976204    0.8509773554
C        6.7643796563   -4.4605387509    0.6168290931
C        4.0163370746   -2.2703719942   -0.1956486169
C        9.7646995882   -6.4807196722    0.3884204548
C        4.0553815740   -2.1532705588   -1.7033692952
N        7.7525281137   -5.0228023768   -0.0261089919
N        4.8574895511   -3.0114418831    0.4886447878
N        5.8799947567   -3.6835281018   -0.1186291101
S        6.6995915282   -4.7715838536    2.3483304993
Cl      -0.3926334781    0.4625895255    2.9504302066
H        3.7280405541    0.3903204033    0.3166402518
H        1.8874239323   -3.4235910770    1.0420980752
H        1.9234332894    1.4988108784    1.6022903739
H        0.0855955223   -2.3023767619    2.3247936856
H        8.6442724226   -6.2462626658    2.9703312868
H        9.4923533546   -7.4716649815    0.0152592083
H       10.2450887983   -5.9175330861   -0.4166906650
H       10.4749176976   -6.5910675664    1.2127734038
H        5.0062439965   -1.7152063232   -2.0196962870
H        3.9516211266   -3.1429242236   -2.1574650517
H        3.2387085944   -1.5167956138   -2.0562253069
H        6.0855867294   -3.6390373062   -1.1114849227
29   

C        2.7504928152   -0.1970145339    0.5370552073
C        2.0605863766   -2.3657431496    1.3334581536
C        1.7154595660    0.3975743674    1.2692189319
C        1.0273890211   -1.7671714595    2.0640857842
C        8.0294185026   -5.8618744730    2.1408786923
C        2.9241458514   -1.5903818988    0.5431104580
C        0.8423715708   -0.3813955325    2.0353433256
C        8.4921619184   -5.8096164628    0.8532298477
C        6.7413135879   -4.4825930892    0.6121124482
C        4.0504625404   -2.2175130858   -0.1945211894
C        9.7373510296   -6.5115606392    0.4079548378
C        4.1629668036   -2.0243869921   -1.6904131478
N        7.7559434633   -5.0145861142   -0.0150522767
N        4.8520468847   -3.0109660386    0.4805369339
N        5.8975443901   -3.6560361741   -0.1169196919
S        6.5912245749   -4.8944630446    2.3170993423
Cl      -0.4465384165    0.3635128218    2.9480362283
H        3.4246885126    0.4294678255   -0.0364583727
H        2.2005800948   -3.4407356427    1.3818228535
H        1.5879873011    1.4736481206    1.2513665191
H        0.3659583338   -2.3800321056    2.6652334277
H        8.4956356528   -6.4193844759    2.9429417175
H        9.4776651366   -7.4774988342   -0.0335497217
H       10.2579011554   -5.9073059186   -0.3404227014
H       10.4075197874   -6.6741850992    1.2568143184
H        5.1228788114   -1.5612502502   -1.9357816877
H        4.0954106227   -2.9911115873   -2.1977306870
H        3.3568072809   -1.3817270939   -2.0555697384
H        6.1519616851   -3.5526069691   -1.0939534800
29   

C        2.5840723532   -0.2594293576    0.3842318107
C        2.1942481826   -2.3597322715    1.5005113797
C        1.5297576855    0.3148048181    1.1051687418
C        1.1414794900   -1.7811024644    2.2188625397
C        7.9538336268   -5.9770889452    2.1176687109
C        2.9221799324   -1.6121161030    0.5576784838
C        0.7968749680   -0.4404411085    2.0254366779
C        8.4671568291   -5.8575278419    0.8538747922
C        6.7251310108   -4.5188470369    0.6135190923
C        4.0617295866   -2.2114743719   -0.1742817620
C        9.7297870976   -6.5361742463    0.4217693837
C        4.2462227872   -1.9359550012   -1.6495133009
N        7.7647215890   -5.0175378190    0.0000841823
N        4.8396507078   -3.0420066875    0.4859496534
N        5.9089026846   -3.6549768389   -0.1034419831
S        6.5082063215   -5.0195697363    2.2872895408
Cl      -0.5161068119    0.2800017945    2.9233364310
H        3.1445145390    0.3589138594   -0.3079298345
H        2.4517154376   -3.3991676044    1.6772534711
H        1.2776667615    1.3584375875    0.9574975187
H        0.5887521051   -2.3745368420    2.9377588144
H        8.3888052896   -6.5763444340    2.9070899477
H        9.4887393387   -7.4764253572   -0.0814542330
H       10.2796086298   -5.8931227921   -0.2713022430
H       10.3653646477   -6.7455109511    1.2868408279
H        5.1986205396   -1.4247404008   -1.8162803952
H        4.2476855189   -2.8769918265   -2.2072071046
H        3.4359111971   -1.3115844610   -2.0353787104
H        6.2025066109   -3.4980517620   -1.0621871951
29   

C        2.4325338196   -0.3423954475    0.2529355462
C        2.3247520635   -2.3078158444    1.6403792368
C        1.3612654170    0.2120848184    0.9646389245
C        1.2547401357   -1.7488624420    2.3483119836
C        7.8819729563   -6.0805048948    2.0832404988
C        2.9281775610   -1.6189496408    0.5693049311
C        0.7609120517   -0.4855623104    2.0156760837
C        8.4417421260   -5.9029665959    0.8462456228
C        6.7106583801   -4.5503647361    0.6049351293
C        4.0705077969   -2.2061535077   -0.1653726598
C        9.7187137403   -6.5641383485    0.4294665556
C        4.3228451297   -1.8549009390   -1.6136882773
N        7.7720201274   -5.0219740748    0.0076281541
N        4.8306781002   -3.0666682599    0.4792773393
N        5.9209441896   -3.6523160036   -0.0995924313
S        6.4317778327   -5.1284175573    2.2443251028
Cl      -0.5735367496    0.2112755719    2.9004725672
H        2.8795337107    0.2475921465   -0.5384150446
H        2.6875391582   -3.2895881291    1.9277511998
H        0.9919532099    1.1976757942    0.7062195878
H        0.8037962331   -2.2985224212    3.1662560958
H        8.2869610176   -6.7175369145    2.8589217818
H        9.4953476222   -7.4805783469   -0.1234019864
H       10.2931202627   -5.8919883833   -0.2143031248
H       10.3229932243   -6.8130502200    1.3064014107
H        5.2465463317   -1.2754570557   -1.6990489192
H        4.4248782354   -2.7685357779   -2.2065124388
H        3.4979606328   -1.2784907592   -2.0387322244
H        6.2502148466   -3.4487539108   -1.0377503758
29   

C        2.5516747244   -0.0660144021    0.8413084550
C        2.1134854242   -2.3680644457    1.3863078261
C        1.7248641870    0.3339872141    1.8990290484
C        1.2891260469   -1.9622127251    2.4414994180
C        5.7510062843   -7.3190758284   -1.1786915108
C        2.7611230709   -1.4265233467    0.5566655755
C        1.0851106358   -0.6076959072    2.7070390773
C        6.4006119311   -6.7057489803   -2.2164529700
C        5.2573744241   -4.9610214527   -1.4862465290
C        3.6282788696   -1.8676322497   -0.5591567609
C        7.3909843476   -7.4135980943   -3.0880193157
C        4.0616311173   -0.9102166669   -1.6450817028
N        6.1198795256   -5.3562635150   -2.3837321402
N        4.0199606083   -3.1259530749   -0.5634162690
N        4.8633384712   -3.6304372070   -1.5127868687
S        4.7125265276   -6.1913558642   -0.3508531689
Cl       0.0571625901   -0.1014355852    4.0247059944
H        3.0355310313    0.7173352543    0.2723777742
H        2.2431342741   -3.4318918098    1.2147929002
H        1.5794143782    1.3884643808    2.1028185563
H        0.8025954784   -2.7058078284    3.0618942562
H        5.8706160959   -8.3589552872   -0.9032712616
H        6.8980720948   -7.7571418734   -4.0014848176
H        8.2032466950   -6.7325003557   -3.3572858837
H        7.8136657605   -8.2750984080   -2.5633379061
H        5.1110393909   -0.6381314357   -1.5002894346
H        3.9552232813   -1.3832234878   -2.6255673758
H        3.4537530909   -0.0045948853   -1.6687902930
H        5.2900743374   -3.0799021400   -2.2508654094
29   

C        2.3237398333   -0.0866313973    0.6461110515
C        2.3095860825   -2.3330387917    1.5024691021
C        1.4352990954    0.2940096195    1.6608211138
C        1.4228731442   -1.9456656875    2.5124919556
C        5.6937221032   -7.3486252372   -1.1862349490
C        2.7842542972   -1.4107702184    0.5405130985
C        0.9767250309   -0.6281455781    2.6018123398
C        6.3688488982   -6.7427226189   -2.2119929753
C        5.3038113653   -4.9652924931   -1.4435166518
C        3.7223105480   -1.8444774327   -0.5209381216
C        7.3218662120   -7.4763266655   -3.1036599321
C        4.2523150168   -0.8930025920   -1.5680491953
N        6.1491591682   -5.3786227544   -2.3491232060
N        4.0927140057   -3.1098757310   -0.5242288493
N        4.9621875010   -3.6200886407   -1.4470848974
S        4.7068553249   -6.1939247346   -0.3327627771
Cl      -0.1301759679   -0.1429895214    3.8622325754
H        2.6198475358    0.7009910186   -0.0305639043
H        2.6257129151   -3.3709187840    1.4776086016
H        1.0940807432    1.3208693941    1.7225702714
H        1.0769566665   -2.6755212324    3.2351289594
H        5.7659888445   -8.3988220756   -0.9344784657
H        6.8061110935   -7.7880205107   -4.0159931458
H        8.1570352024   -6.8236999518   -3.3732939090
H        7.7159611275   -8.3607532461   -2.5951749203
H        5.3424032417   -0.8412243412   -1.4926093029
H        3.9954995814   -1.2687453427   -2.5628404480
H        3.8689064540    0.1214800792   -1.4963910227
H        5.4044172712   -3.0752677164   -2.1802721909
29   

C        2.0925954732   -0.1962426710    0.4886399674
C        2.4660839766   -2.2666189855    1.6558841080
C        1.1485214743    0.1703821732    1.4564821239
C        1.5218394673   -1.8948744992    2.6191624202
C        5.6649309727   -7.3363337672   -1.2459185975
C        2.7776713247   -1.4210588956    0.5685505681
C        0.8553804604   -0.6722901088    2.5301976675
C        6.3514902618   -6.7158384023   -2.2551930866
C        5.3426584089   -4.9353897023   -1.4206875136
C        3.7812420112   -1.8232405119   -0.4427294970
C        7.2730822596   -7.4474080326   -3.1808677200
C        4.3652058702   -0.8227846618   -1.4131727084
N        6.1721391960   -5.3418063960   -2.3439708947
N        4.1409075952   -3.0908014312   -0.4709178696
N        5.0337907889   -3.5827695383   -1.3807890989
S        4.7173187285   -6.1831023120   -0.3473762171
Cl      -0.3238546071   -0.2090560011    3.7318806886
H        2.2507357280    0.4943902495   -0.3295251057
H        2.9614243075   -3.2261436330    1.7649078369
H        0.6296407809    1.1183124810    1.3740226154
H        1.3028167321   -2.5620938782    3.4446211503
H        5.7063101587   -8.3964059458   -1.0313412529
H        6.7406458422   -7.7071275475   -4.0999191108
H        8.1281044575   -6.8138237085   -3.4329832228
H        7.6398661497   -8.3632488684   -2.7088971846
H        5.4492835182   -0.9525969251   -1.4781749579
H        3.9346162258   -0.9777237181   -2.4065851947
H        4.1938806378    0.2087721517   -1.1022947094
H        5.4804553620   -3.0277540000   -2.1035386331
29   

C        1.9062605249   -0.2971349334    0.3442880173
C        2.5575166133   -2.1525010436    1.7347213098
C        0.9396335411    0.0656740284    1.2906440807
C        1.5898497446   -1.7855812684    2.6767989031
C        5.6950332434   -7.3023659076   -1.2517380361
C        2.7426732884   -1.4071612947    0.5531882423
C        0.7740036287   -0.6719283639    2.4655273135
C        6.3763685829   -6.6718666831   -2.2583596237
C        5.3241309567   -4.9094301059   -1.4391526438
C        3.7547389855   -1.8085589353   -0.4487221090
C        7.2618240777   -7.4001854369   -3.2211910400
C        4.4070082073   -0.7809911037   -1.3451221020
N        6.1554581890   -5.3052211609   -2.3654044238
N        4.0862601788   -3.0818097565   -0.5018857523
N        4.9960590266   -3.5612793833   -1.4013916491
S        4.7279056161   -6.1629828954   -0.3562472958
Cl      -0.4338451993   -0.2158198300    3.6412261295
H        1.9802279845    0.2926302216   -0.5617134753
H        3.1716966087   -3.0264375126    1.9273157290
H        0.3038087014    0.9251441227    1.1128821054
H        1.4675427867   -2.3716809393    3.5801466931
H        5.7425224279   -8.3635093927   -1.0438306739
H        7.1818710403   -6.9493949849   -4.2144439939
H        8.3004972057   -7.3378451365   -2.8854922428
H        6.9693732303   -8.4519424350   -3.2875934334
H        5.4952945012   -0.8792541211   -1.2945973883
H        4.0877237684   -0.9356817643   -2.3797187494
H        4.1551895360    0.2375904210   -1.0410855977
H        5.4513732808   -2.9974257847   -2.1118532767
29   

C        1.7822378618   -0.4242069420    0.2297570962
C        2.6811494079   -2.0083720843    1.8082590328
C        0.7978319202   -0.0637346546    1.1582324239
C        1.6950692278   -1.6448028451    2.7327272475
C        5.5965509998   -7.3204354417   -1.3379867788
C        2.7515270176   -1.3907701377    0.5467547359
C        0.7470921783   -0.6670369972    2.4183268120
C        6.3394091591   -6.6762820242   -2.2909791973
C        5.2957335718   -4.9135817043   -1.4614179587
C        3.7694402211   -1.8021769389   -0.4472620673
C        7.2491085973   -7.3968480938   -3.2368937992
C        4.4936446477   -0.7595532068   -1.2687349946
N        6.1585556922   -5.3014253781   -2.3619036065
N        4.0665437881   -3.0817577754   -0.5199764472
N        5.0015543345   -3.5587673311   -1.3944336605
S        4.6187447024   -6.1849332145   -0.4491775850
Cl      -0.4830211842   -0.2155698130    3.5725307836
H        1.7821565577    0.0493279247   -0.7455877734
H        3.3985604207   -2.7794713181    2.0703271571
H        0.0594283119    0.6866933602    0.9010461975
H        1.6597584812   -2.1284788626    3.7018986528
H        5.6070595567   -8.3886779029   -1.1640888954
H        7.2326592705   -6.9073682143   -4.2147993893
H        8.2711682734   -7.3807412929   -2.8488772114
H        6.9281876991   -8.4353591613   -3.3578505111
H        5.5727043308   -0.8430567683   -1.1098928000
H        4.2801072926   -0.9086643651   -2.3309887133
H        4.1834111898    0.2489893615   -0.9824861525
H        5.5053888018   -2.9856993263   -2.0635890175
29   

C        1.6701449596   -0.5938102025    0.1485782222
C        2.8006292959   -1.8317746383    1.8815290625
C        0.6669971495   -0.2407793379    1.0595964318
C        1.7954955622   -1.4767236382    2.7888570435
C        5.4989237668   -7.3299995478   -1.4341850864
C        2.7624172527   -1.3778752743    0.5533502181
C        0.7223637417   -0.6747699922    2.3879842914
C        6.3013872870   -6.6756475634   -2.3301606944
C        5.2770546787   -4.9118221262   -1.4791031664
C        3.8015750236   -1.7925242901   -0.4233856540
C        7.2277365524   -7.3902180932   -3.2643755670
C        4.5946035282   -0.7368428138   -1.1611385888
N        6.1659035352   -5.2939906580   -2.3564448721
N        4.0616339485   -3.0768665251   -0.5262993638
N        5.0212851927   -3.5515440051   -1.3747464724
S        4.5188076808   -6.1969239822   -0.5448962559
Cl      -0.5309060977   -0.2335891649    3.5210592494
H        1.5966878370   -0.2587378472   -0.8801442148
H        3.6165244364   -2.4697445948    2.2053469908
H       -0.1677827163    0.3701396291    0.7364486983
H        1.8421213788   -1.8308457205    3.8120327289
H        5.4690607411   -8.4036641858   -1.3006378386
H        7.2698404692   -6.8635620609   -4.2219886565
H        8.2318546808   -7.4238219409   -2.8330749333
H        6.8788058193   -8.4117853046   -3.4398269714
H        5.6568418282   -0.8295200505   -0.9171142933
H        4.4664565634   -0.8600732510   -2.2402691490
H        4.2575121499    0.2641391404   -0.8771465217
H        5.5725300404   -2.9712952541   -1.9988155819
29   

C        1.5738173093   -0.8245973682    0.0642534545
C        2.8953145569   -1.5926249469    1.9288131158
C        0.5486251876   -0.4584048720    0.9450250631
C        1.8682688018   -1.2253162098    2.8064101477
C        5.3814040367   -7.3487717425   -1.5734539548
C        2.7670216958   -1.3807728306    0.5480870660
C        0.6877550362   -0.6513014763    2.3235008028
C        6.2488368594   -6.6875206369   -2.4011883225
C        5.2521756116   -4.9240711032   -1.5170316356
C        3.8483878308   -1.7989052280   -0.3897328649
C        7.1902766009   -7.3960681940   -3.3248463905
C        4.7045268840   -0.7374621044   -1.0444716605
N        6.1664624888   -5.3017582414   -2.3698954464
N        4.0608634445   -3.0862388852   -0.5398468682
N        5.0426116208   -3.5605921287   -1.3627019326
S        4.4033975559   -6.2184492960   -0.6784344018
Cl      -0.5920845783   -0.1932713552    3.4195836766
H        1.4412451993   -0.6788688735   -1.0021704778
H        3.7982668309   -2.0515208841    2.3174502228
H       -0.3671631650   -0.0252150999    0.5601029895
H        1.9820887495   -1.3910996937    3.8713190888
H        5.3052489003   -8.4252633458   -1.4907684254
H        7.2944890765   -6.8309278079   -4.2553909711
H        8.1719943994   -7.4860896068   -2.8520733673
H        6.8131670931   -8.3952558086   -3.5605583111
H        5.7483987642   -0.8609129696   -0.7420253453
H        4.6376379703   -0.8222475836   -2.1327901501
H        4.3673846920    0.2596301551   -0.7466334190
H        5.6456106355   -2.9758083421   -1.9322867548
29   

C        1.5613619961   -1.0618340796    0.1393338493
C        3.0559646953   -1.2965202005    2.0166981710
C        0.5459933958   -0.6347826092    1.0038620264
C        2.0388042466   -0.8682553270    2.8782198430
C        5.0980201393   -7.3557212143   -1.8985166538
C        2.8286965820   -1.3933844943    0.6363144241
C        0.7758316235   -0.5313761075    2.3799519497
C        6.1297811695   -6.7054872582   -2.5210560521
C        5.1478009598   -4.9439215326   -1.6168849928
C        3.9189654320   -1.8241890141   -0.2901936870
C        7.1957128895   -7.4211590138   -3.2912782842
C        4.8340175014   -0.7719456378   -0.8776584857
N        6.1573698178   -5.3276684516   -2.3514006817
N        4.0389136872   -3.1070756581   -0.5423969689
N        5.0280927383   -3.5863699807   -1.3536342983
S        4.0753992207   -6.2229960088   -1.0578125714
Cl      -0.4903973682    0.0060706605    3.4555825174
H        1.3645393645   -1.1406299978   -0.9243746446
H        4.0282584231   -1.5581071346    2.4199253847
H       -0.4307830660   -0.3819067815    0.6083330466
H        2.2260148123   -0.7965986417    3.9432640951
H        4.9412184557   -8.4264779208   -1.9173279633
H        6.9517976117   -7.4078535328   -4.3569846799
H        8.1592260808   -6.9259026570   -3.1411718207
H        7.2775056574   -8.4587940198   -2.9554787096
H        5.8671217596   -0.9629797851   -0.5737099565
H        4.7750439568   -0.7935856179   -1.9695989787
H        4.5417978758    0.2225972419   -0.5281339981
H        5.7462989270   -3.0115621145   -1.7823526394
29   

C        1.5517503003   -1.4138460068    0.2083646926
C        3.0730734283   -0.9840271158    2.0299813391
C        0.4851172384   -0.9630954798    0.9954172636
C        2.0038544469   -0.5330489208    2.8134995399
C        5.0096544949   -7.3234841571   -2.0642922735
C        2.8566745827   -1.4376884628    0.7203230245
C        0.7010319637   -0.5184339631    2.3041089233
C        6.0846007539   -6.6791110175   -2.6157808372
C        5.1454416988   -4.9376181094   -1.6309126130
C        3.9945139527   -1.8595807158   -0.1449185505
C        7.1447522196   -7.3899472728   -3.3983088934
C        4.9367950362   -0.8033812494   -0.6791110319
N        6.1610207191   -5.3165850607   -2.3595511324
N        4.0738117927   -3.1277971916   -0.4767565712
N        5.0702795451   -3.5952630360   -1.2858907224
S        4.0066026396   -6.2034024713   -1.1840788085
Cl      -0.6299560754    0.0478162626    3.2823675978
H        1.3682464932   -1.7544992909   -0.8052030855
H        4.0766423977   -0.9838027124    2.4410103762
H       -0.5202063361   -0.9562736651    0.5907476161
H        2.1814193538   -0.1891047152    3.8257733456
H        4.8121815607   -8.3838922456   -2.1537622856
H        6.9246418968   -7.3175854173   -4.4668204539
H        8.1195021284   -6.9332903738   -3.2046664794
H        7.1873259560   -8.4446010945   -3.1119048723
H        5.9602739790   -1.0204875576   -0.3605991969
H        4.9005170677   -0.7891461200   -1.7722100478
H        4.6527435918    0.1845653815   -0.3051351369
H        5.8237381109   -3.0244554956   -1.6553548607
29   

C        1.5734138330   -1.6549796411    0.2956960588
C        3.0681684191   -0.7371115187    1.9512019538
C        0.4762250222   -1.2065256775    1.0407444168
C        1.9677769842   -0.2899194478    2.6926019647
C        4.9248680395   -7.2829213722   -2.1787180767
C        2.8841721437   -1.4364733401    0.7476348019
C        0.6628428575   -0.5209343542    2.2454060981
C        6.0451887343   -6.6616803636   -2.6623067855
C        5.1346882948   -4.9224415731   -1.6470944265
C        4.0419314028   -1.8614908119   -0.0795509985
C        7.1079660647   -7.3842665119   -3.4303658780
C        5.0412538034   -0.8269699491   -0.5473965324
N        6.1634792378   -5.3139282147   -2.3500540130
N        4.0872853212   -3.1177259128   -0.4634139264
N        5.0964995636   -3.5922831979   -1.2524479022
S        3.9307288905   -6.1575703603   -1.2950937414
Cl      -0.7070387837    0.0398428567    3.1717537277
H        1.4101313191   -2.1833172276   -0.6380148760
H        4.0707701905   -0.5431255262    2.3160589299
H       -0.5303510801   -1.3900538696    0.6835413674
H        2.1222441415    0.2427233443    3.6237162071
H        4.6907664247   -8.3305351048   -2.3172110155
H        6.9332209232   -7.2641620939   -4.5029534948
H        8.0908043321   -6.9735232381   -3.1823871038
H        7.0993858511   -8.4495759092   -3.1830363509
H        6.0404238089   -1.0824485775   -0.1833737884
H        5.0599314574   -0.7937407368   -1.6405740193
H        4.7717926666    0.1649790929   -0.1737765238
H        5.8863575170   -3.0382608039   -1.5674366372
29   

C        1.6171136347   -1.8208713071    0.4035976886
C        3.0576185076   -0.5343238359    1.8482598019
C        0.5032509997   -1.3869786358    1.1321672937
C        1.9397941818   -0.1034159068    2.5729854404
C        4.8418292475   -7.2307581006   -2.2737876296
C        2.9136934256   -1.4067286714    0.7549840386
C        0.6537325013   -0.5252299933    2.2226549048
C        6.0039738264   -6.6419005133   -2.6952543191
C        5.1249741822   -4.8977881708   -1.6608577146
C        4.0806579251   -1.8407763793   -0.0473040898
C        7.0654359005   -7.3839615334   -3.4463702504
C        5.1489215952   -0.8440212651   -0.4366326053
N        6.1639360038   -5.3101655586   -2.3363234170
N        4.0991608257   -3.0873586594   -0.4675208323
N        5.1227030577   -3.5793411905   -1.2270233209
S        3.8598818329   -6.0924041277   -1.3931913592
Cl      -0.7374468641    0.0149740582    3.1292905136
H        1.4747343667   -2.4885461927   -0.4401615249
H        4.0421916033   -0.1929436288    2.1476524338
H       -0.4886436994   -1.7208833136    0.8508742981
H        2.0661286732    0.5641416238    3.4173572713
H        4.5715582789   -8.2631837432   -2.4541887939
H        6.9372057060   -7.2231662113   -4.5202081062
H        8.0538351540   -7.0225927422   -3.1486395684
H        7.0040456349   -8.4551996514   -3.2347050511
H        6.1084465054   -1.1386249263   -0.0022013111
H        5.2491390761   -0.8110661121   -1.5254115744
H        4.8945611456    0.1601479124   -0.0871246878
H        5.9459079971   -3.0483168661   -1.4923102404
29   

C        1.6594230187   -1.9602811568    0.5259989799
C        3.0169009854   -0.3770498597    1.7360611209
C        0.5367056701   -1.5495755606    1.2541765627
C        1.8894170548    0.0288526359    2.4602587353
C        4.7739592334   -7.1695800294   -2.3793305167
C        2.9227413522   -1.3801659598    0.7512358250
C        0.6402507517   -0.5514070414    2.2260711837
C        5.9780234736   -6.6167279622   -2.7251807723
C        5.1154485258   -4.8668306609   -1.6867508814
C        4.0968534930   -1.8178811448   -0.0356499507
C        7.0468541173   -7.3802605103   -3.4436038837
C        5.2280385839   -0.8607286212   -0.3340763512
N        6.1708245256   -5.3024365574   -2.3208827759
N        4.0986071205   -3.0531319024   -0.4919761336
N        5.1400621990   -3.5614270194   -1.2156577661
S        3.7932010103   -6.0167297789   -1.5165042952
Cl      -0.7622193728   -0.0415528579    3.1329008587
H        1.5424897038   -2.7380761139   -0.2219602948
H        3.9683935880    0.0890187233    1.9635368323
H       -0.4260063176   -2.0099157828    1.0650685443
H        1.9805374665    0.7996769198    3.2166385070
H        4.4734489237   -8.1850989769   -2.6027714410
H        6.9859065733   -7.1779374441   -4.5163455452
H        8.0316617690   -7.0738379656   -3.0797193268
H        6.9277138973   -8.4541683591   -3.2743208317
H        6.1325970626   -1.1807126747    0.1909472859
H        5.4312576826   -0.8473756403   -1.4088358867
H        4.9819252450    0.1600353766   -0.0326201686
H        5.9954224879   -3.0556477266   -1.4219326489
29   

C        1.7214130773   -2.0872880607    0.6633168289
C        2.9509881849   -0.2399091343    1.6037913039
C        0.5889486997   -1.6977835587    1.3878217402
C        1.8130204799    0.1426232414    2.3243525444
C        4.7133424568   -7.1099030551   -2.4877529596
C        2.9282127725   -1.3613675554    0.7464252832
C        0.6224757470   -0.5791744549    2.2220836391
C        5.9541542756   -6.5965320160   -2.7559770129
C        5.1058104952   -4.8407768351   -1.7158228853
C        4.1126750862   -1.8012238488   -0.0246090483
C        7.0295640647   -7.3830887108   -3.4388534350
C        5.3029071174   -0.8940093406   -0.2340282901
N        6.1755077448   -5.3015404412   -2.3066223756
N        4.0989032234   -3.0230802466   -0.5190196075
N        5.1550180524   -3.5501585106   -1.2075248318
S        3.7335557789   -5.9415308803   -1.6448993487
Cl      -0.7923965163   -0.0965331836    3.1245460102
H        1.6456024590   -2.9641715463    0.0283092372
H        3.8493543868    0.3469841487    1.7461386200
H       -0.3272636307   -2.2704163505    1.3032294656
H        1.8514390250    1.0069255027    2.9771364889
H        4.3863733040   -8.1066807354   -2.7542952970
H        7.0384399767   -7.1451369551   -4.5059581646
H        8.0038266598   -7.1309983186   -3.0105736868
H        6.8565631311   -8.4555722200   -3.3124411946
H        6.1480355403   -1.2495291111    0.3623657566
H        5.5929573782   -0.8972196454   -1.2887448894
H        5.0872023030    0.1419126604    0.0315020103
H        6.0386707862   -3.0731394399   -1.3544109605
29   

C        1.8203703882   -2.2238510969    0.9047885438
C        2.8406084395   -0.1130713745    1.4469935518
C        0.6603739732   -1.8349766617    1.5842424357
C        1.6755521159    0.2672555348    2.1244889698
C        4.7058897830   -7.0544248805   -2.5561944758
C        2.9452913146   -1.3747898125    0.8137165683
C        0.5759622117   -0.5869687959    2.1998595532
C        5.9607990493   -6.5557416385   -2.7834268553
C        5.1312107217   -4.8288646001   -1.6816797443
C        4.1542549362   -1.8260670897    0.0859375352
C        7.0302658235   -7.3334971053   -3.4854281088
C        5.3867781581   -0.9620058969   -0.0444295951
N        6.2010634981   -5.2863430241   -2.2747126720
N        4.1309386002   -3.0313414942   -0.4486928462
N        5.1968345428   -3.5612605823   -1.1201711624
S        3.7364711713   -5.9033501736   -1.6782669830
Cl      -0.8727940068   -0.1041859794    3.0467821023
H        1.8260301542   -3.2072409281    0.4459138394
H        3.6422639813    0.6112591607    1.4424232455
H       -0.1856404782   -2.5104389526    1.6345920825
H        1.6204944598    1.2393019111    2.6007091565
H        4.3630578280   -8.0315106079   -2.8713026844
H        7.0575410136   -7.0511998860   -4.5413710860
H        8.0033820325   -7.1182802810   -3.0350168377
H        6.8355608130   -8.4068018423   -3.4065799412
H        6.2346004225   -1.4616474830    0.4332707034
H        5.6224322686   -0.8205994917   -1.1033143025
H        5.2872376096    0.0249250445    0.4016100026
H        6.0899261517   -3.0938073593   -1.2378137981
