27   
Generated by ForceBalance from scan.xyz: Frame 1 of 24
C       -2.0510556185   -1.7795349633    1.9244513177
C       -1.2500499822   -2.8781780023    2.2620003188
C       -1.8604864498   -0.5454177067    2.5575573470
C       -0.2594030311   -2.7454462711    3.2302271835
C       -0.8699098845   -0.4070420805    3.5276538152
C        3.4271960600    1.0405391134    8.2766010760
C        3.3202839277   -0.8017361915    6.6897175506
C       -0.0590354200   -1.5073051632    3.8726613121
C        2.3163447541    1.1023293972    7.4919907297
C        1.0061906154   -1.4337285308    4.8917090764
C        1.2418668685    2.1434292107    7.5333894900
C        1.1895006926   -0.0691873580    5.5881475806
N        2.2735705199    0.0212949397    6.5921064078
O        1.7097593404   -2.3903405371    5.1942413877
S        4.4099599461   -0.3315656127    7.8944389189
H       -2.8240021681   -1.8842572818    1.1682896592
H       -1.4015292110   -3.8337716710    1.7690015469
H       -2.4834457747    0.3036932939    2.2930603522
H        0.3690353766   -3.5863900809    3.5046225293
H       -0.7442043327    0.5620312239    4.0017790025
H        3.7137107074    1.7322397530    9.0573780747
H        3.4246014364   -1.6855360780    6.0774926182
H        1.1153750866    2.6321242813    6.5627249820
H        0.2795665851    1.7162064784    7.8332338149
H        1.5081242763    2.9092508630    8.2628532957
H        0.2581406529    0.1864057733    6.0954112552
H        1.3778529483    0.6989153594    4.8332649641
27   
Generated by ForceBalance from scan.xyz: Frame 2 of 24
C       -2.0439592755   -1.8306716546    1.9176769948
C       -1.3432832966   -2.9398011085    2.4096588473
C       -1.7730768078   -0.5483448493    2.4100496075
C       -0.3725431533   -2.7698465326    3.3919706257
C       -0.8020895177   -0.3722894236    3.3939243313
C        3.4043526372    0.9810732767    8.2900179144
C        3.3759897872   -0.6561658008    6.4922947725
C       -0.0922155376   -1.4828037496    3.8932165153
C        2.2825919982    1.0787345219    7.5242699288
C        0.9462521865   -1.3660818451    4.9334846319
C        1.1550825178    2.0470644173    7.7009270499
C        1.2237151925    0.0548810049    5.4797741313
N        2.2850672183    0.1128378934    6.5029569958
O        1.5712167165   -2.3212672908    5.3763513233
S        4.4552176926   -0.2791095455    7.7379500667
H       -2.8013879531   -1.9650078928    1.1505611025
H       -1.5573107546   -3.9324950274    2.0250562052
H       -2.3183600136    0.3084695767    2.0259452649
H        0.1787541173   -3.6177547880    3.7853012645
H       -0.6111736747    0.6332212893    3.7576740446
H        3.6626010676    1.5845221049    9.1497963083
H        3.5378271372   -1.4447536637    5.7737226942
H        0.9989386626    2.6526555604    6.8030946118
H        0.2188937591    1.5333667918    7.9419391376
H        1.3850847658    2.7227568283    8.5256320368
H        0.3099036887    0.4444340025    5.9269133025
H        1.5049771919    0.7204431741    4.6591696734
27   
Generated by ForceBalance from scan.xyz: Frame 3 of 24
C        3.2448139105   -1.5271071465    0.1514663274
C        3.1111271524   -2.7000544682    0.9063785038
C        3.1173944760   -0.2741426320    0.7629498934
C        2.8509684724   -2.6238710304    2.2711354167
C        2.8537158218   -0.1919374722    2.1288663231
C        0.8103842455    0.4253245850    8.3606218157
C        2.5513572658   -0.8727536711    7.2697275207
C        2.7189615602   -1.3669856636    2.8951186356
C        0.9090836830    0.7139685136    7.0332138291
C        2.4459426674   -1.3452169146    4.3427616745
C        0.0815248234    1.6932098377    6.2611466764
C        2.2738267210    0.0480760638    5.0057831273
N        1.9171110241   -0.0541998588    6.4285806128
O        2.3568867927   -2.3497240116    5.0356397646
S        1.9609621811   -0.7731616919    8.8506234190
H        3.4487742894   -1.5889716685   -0.9137962529
H        3.2107857920   -3.6692631520    0.4269222285
H        3.2237232119    0.6322426452    0.1745925688
H        2.7451468257   -3.5218397157    2.8712545045
H        2.7621172728    0.7919409771    2.5800120681
H        0.1184008931    0.8543835032    9.0726831119
H        3.3566720856   -1.5261626449    6.9703996566
H        0.7014308023    2.4668178163    5.7976528560
H       -0.5024410306    1.1972712494    5.4793511866
H       -0.6190812724    2.1856322300    6.9366451174
H        1.4903644294    0.6068196698    4.4984094421
H        3.2036640169    0.6164402505    4.9145285116
27   
Generated by ForceBalance from scan.xyz: Frame 4 of 24
C        3.1377356801   -1.5366498906    0.1811135165
C        2.9330501699   -2.6919282198    0.9474936940
C        3.1364343968   -0.2749754719    0.7879222799
C        2.7276205840   -2.5878189581    2.3196225717
C        2.9258211835   -0.1640242268    2.1610695747
C        0.7149177619    0.3196499489    8.2898050529
C        2.6670737233   -0.7599500684    7.3284630509
C        2.7201090065   -1.3212620032    2.9384738744
C        0.9002344466    0.6648882623    6.9852027747
C        2.5041904074   -1.2692534134    4.3939769486
C        0.0469207858    1.5785067912    6.1627132137
C        2.4702036124    0.1356309756    5.0631392835
N        2.0375788350    0.0325381994    6.4604938913
O        2.3738858312   -2.2566925783    5.1040487773
S        1.9338012879   -0.7766399935    8.8512696606
H        3.2992794902   -1.6194078340   -0.8899917495
H        2.9356847094   -3.6680149240    0.4716188199
H        3.2991072802    0.6166174560    0.1899462162
H        2.5701562417   -3.4712533844    2.9299481397
H        2.9340498329    0.8255998517    2.6089095773
H       -0.0770910240    0.6516835446    8.9473899371
H        3.5553386466   -1.3228594933    7.0814797087
H        0.6176377252    2.4348109529    5.7900142760
H       -0.3956897892    1.0539667364    5.3101091052
H       -0.7686669101    1.9621339272    6.7768863377
H        1.7909464748    0.8033967860    4.5394404191
H        3.4691311412    0.5792678259    5.0283445940
27   
Generated by ForceBalance from scan.xyz: Frame 5 of 24
C        0.3577818773   -1.0523928317   -0.0097643211
C        0.5890618285   -2.2731777912    0.6386956095
C        0.5013815759    0.1553513439    0.6834426420
C        0.9640896637   -2.2890944352    1.9783900065
C        0.8704025800    0.1453495070    2.0274463972
C        1.0965605000   -0.4162839875    8.4670389982
C        2.8279613329   -0.7452757203    6.7971242623
C        1.1051946842   -1.0780336164    2.6861767802
C        0.7404624216    0.0892387424    7.2530115496
C        1.5124054717   -1.1498270600    4.0987774430
C       -0.5468010706    0.7606644944    6.8919733551
C        1.6410311810    0.1888146981    4.8867789090
N        1.7683247824   -0.0953249129    6.3176718395
O        1.7856351464   -2.1874731151    4.6856473992
S        2.6741022205   -1.1327736167    8.4346797294
H        0.0667016813   -1.0420225500   -1.0563802386
H        0.4774478474   -3.2068194093    0.0954857509
H        0.3254814266    1.0988082217    0.1755636404
H        1.1517086070   -3.2244709284    2.4957683914
H        0.9806666042    1.0955702035    2.5421152054
H        0.5106703044   -0.4081808747    9.3762399468
H        3.6907725937   -0.9927518268    6.1944057936
H       -0.3821237018    1.7881232467    6.5524233135
H       -1.0761194244    0.2124771387    6.1063875503
H       -1.1952868992    0.7975075910    7.7680714989
H        0.7829018560    0.8383779575    4.7341514190
H        2.5310973486    0.7252577640    4.5472343073
27   
Generated by ForceBalance from scan.xyz: Frame 6 of 24
C        0.3442612198   -1.0337594353    0.0112011107
C        0.4095396584   -2.2467967514    0.7102576810
C        0.6334700131    0.1723128373    0.6603821614
C        0.7633787279   -2.2575982911    2.0558856021
C        0.9835866558    0.1696094890    2.0095425348
C        1.1240475727   -0.4583285289    8.4272159100
C        2.9516539430   -0.5526387873    6.8335634593
C        1.0511396453   -1.0467293201    2.7175568758
C        0.7604525167    0.0091775961    7.1995416428
C        1.4262573400   -1.1108154013    4.1397767222
C       -0.5837243482    0.5089229937    6.7754395043
C        1.7203168872    0.2295555274    4.8765790646
N        1.8428197540   -0.0325512966    6.3125234341
O        1.5424921899   -2.1466228732    4.7788849258
S        2.7766422607   -0.9741532502    8.4603056654
H        0.0689694006   -1.0283478331   -1.0397329175
H        0.1852807589   -3.1794657581    0.2012831031
H        0.5850714635    1.1093891634    0.1139910071
H        0.8229125692   -3.1875328551    2.6123722576
H        1.2074403327    1.1176924162    2.4904105854
H        0.5026018581   -0.5345838131    9.3092975058
H        3.8598906518   -0.6941051775    6.2627755202
H       -0.5416578300    1.5562869294    6.4601519106
H       -0.9852020162   -0.0890091695    5.9514971726
H       -1.2798511406    0.4383339888    7.6119070164
H        0.9360069864    0.9674519908    4.7192331045
H        2.6580697979    0.6567805087    4.5133629628
27   
Generated by ForceBalance from scan.xyz: Frame 7 of 24
C        0.4164206739   -1.0186339691   -0.0066889878
C        0.2511061549   -2.1895660895    0.7455646139
C        0.8490780276    0.1625071240    0.6077801631
C        0.5172673001   -2.1820604440    2.1113062088
C        1.1170715381    0.1758060564    1.9755351336
C        1.2348347941   -0.4279288978    8.4326961464
C        3.0596664195   -0.2939062605    6.8399332951
C        0.9524111189   -0.9972050100    2.7383430859
C        0.8077136215   -0.0566002057    7.1919812010
C        1.2239821147   -1.0419938369    4.1848648358
C       -0.5928712732    0.2371944884    6.7602003497
C        1.7212426241    0.2641001225    4.8650210505
N        1.8857636106    0.0329889788    6.3044974383
O        1.0890022438   -2.0358956870    4.8843713177
S        2.9438150377   -0.6932997014    8.4778738814
H        0.2083522781   -1.0265870655   -1.0729363665
H       -0.0836528981   -3.1029388209    0.2628968481
H        0.9760192024    1.0668125821    0.0202908264
H        0.3971011625   -3.0790674560    2.7104013126
H        1.4523845865    1.1036728929    2.4305227565
H        0.6297183916   -0.5686885669    9.3181902777
H        3.9823736745   -0.3080140452    6.2746069125
H       -0.6891605212    1.2588981921    6.3798050670
H       -0.9145597336   -0.4617443400    5.9835438142
H       -1.2665765027    0.1319638213    7.6112500167
H        1.0156695725    1.0831605319    4.7185313629
H        2.6821797370    0.5738783486    4.4505232311
27   
Generated by ForceBalance from scan.xyz: Frame 8 of 24
C        0.3434999775   -0.9746520366    0.0351632878
C        0.0938337715   -2.1229758052    0.7988510391
C        0.8909939313    0.1667969502    0.6326648332
C        0.3897163652   -2.1321406958    2.1584021416
C        1.1864953800    0.1641210768    1.9948113637
C        1.1454351502   -0.4547510120    8.4186839840
C        3.0622500521   -0.1231126163    6.9734550770
C        0.9370212229   -0.9860564624    2.7696337505
C        0.7761804667   -0.1632581055    7.1384732464
C        1.2355470081   -1.0523534345    4.2105808641
C       -0.6181012684   -0.0095261279    6.6185401325
C        1.8464558614    0.2099507049    4.8750445201
N        1.9051214767    0.0490735572    6.3351710773
O        1.0480527601   -2.0388402871    4.9085722541
S        2.8636622327   -0.5079711578    8.6063236710
H        0.1123902520   -0.9695397475   -1.0263492110
H       -0.3287206089   -3.0064392886    0.3295902267
H        1.0849876689    1.0533818952    0.0365394496
H        0.2078488720   -3.0136682062    2.7648160755
H        1.6126106031    1.0613172695    2.4347143040
H        0.4913853377   -0.6454875063    9.2588761454
H        4.0237499289   -0.0358391897    6.4847484174
H       -0.7301064065    0.9131204622    6.0416456284
H       -0.8925553051   -0.8558202770    5.9853393329
H       -1.3149437727    0.0346299567    7.4565265043
H        1.2543598537    1.0992156721    4.6489847836
H        2.8584760388    0.3806102715    4.5043502054
27   
Generated by ForceBalance from scan.xyz: Frame 9 of 24
C        0.2522355350   -0.9187343263    0.0783638587
C       -0.0572680377   -2.0430359251    0.8558366656
C        0.9043953653    0.1788587832    0.6520651235
C        0.2836917897   -2.0715509665    2.2043048331
C        1.2422809601    0.1585297503    2.0042942208
C        1.0899975834   -0.3751473392    8.4103640092
C        3.0503828822    0.1073198791    7.0761828692
C        0.9335458212   -0.9677273957    2.7932668906
C        0.7804176187   -0.2130017807    7.0911509899
C        1.2780667822   -1.0625491089    4.2230088294
C       -0.5985867711   -0.2254444677    6.5039690257
C        1.9940217998    0.1454834470    4.8745650170
N        1.9317084405    0.0920126882    6.3484774340
O        1.0648135525   -2.0481209457    4.9153475083
S        2.7815656494   -0.1993294451    8.7143839640
H       -0.0131036820   -0.8986749514   -0.9749336752
H       -0.5601319442   -2.8935920764    0.4053510478
H        1.1466024352    1.0462490708    0.0454498536
H        0.0596605210   -2.9371879637    2.8193331707
H        1.7513159488    1.0218242978    2.4227283444
H        0.4016513121   -0.5854401094    9.2180182199
H        4.0289142783    0.2801203318    6.6481036110
H       -0.6862354847    0.4702226922    5.6656823988
H       -0.8585837081   -1.2240907388    6.1488007694
H       -1.3185529450    0.0779476663    7.2660889632
H        1.5468626204    1.0887593251    4.5538445324
H        3.0431150912    0.1519235416    4.5748489857
27   
Generated by ForceBalance from scan.xyz: Frame 10 of 24
C        0.0699129972   -0.8259264121    0.1766170413
C       -0.1638446718   -1.9959427494    0.9125662392
C        0.7476188737    0.2502285413    0.7598797937
C        0.2779115787   -2.0894347519    2.2276454071
C        1.1893335362    0.1633127854    2.0796444218
C        0.9234022549   -0.1901241308    8.3638813767
C        2.9899003536    0.2438669870    7.1896927486
C        0.9572976028   -1.0084797663    2.8287654543
C        0.7547194289   -0.2306286084    7.0094528610
C        1.3955877545   -1.1865729203    4.2250340374
C       -0.5634350511   -0.3851371955    6.3105223301
C        2.2372952143   -0.0817423839    4.8985042859
N        1.9669412039    0.0455557737    6.3544758458
O        1.1810123708   -2.1984442349    4.8803877949
S        2.5549275489    0.1463804020    8.8171252237
H       -0.2743770839   -0.7541098329   -0.8512664073
H       -0.6864899342   -2.8307858892    0.4552564712
H        0.9299725165    1.1541761382    0.1866429716
H        0.1125513388   -2.9906338776    2.8090702802
H        1.7130570603    1.0151583663    2.5013563259
H        0.1579834756   -0.3290138365    9.1156818229
H        4.0009238895    0.4212171978    6.8471577995
H       -0.6063267838    0.2105049543    5.3953021465
H       -0.7494876782   -1.4275682014    6.0480468180
H       -1.3586323506   -0.0374193651    6.9724503445
H        2.0738882936    0.8995543430    4.4534232957
H        3.2888267575   -0.3452165854    4.7741760707
27   
Generated by ForceBalance from scan.xyz: Frame 11 of 24
C        4.1101357986   -1.2312344802    1.0115047960
C        3.4844722205   -2.4724309502    1.1926354261
C        3.7899156668   -0.1527860525    1.8445649797
C        2.5439157460   -2.6364602518    2.2053816872
C        2.8455031112   -0.3119853493    2.8580219944
C        3.6509619359   -0.0828631491    7.4073115669
C        1.6759592020    1.0468209842    6.5981190016
C        2.2159832298   -1.5571629025    3.0490036141
C        2.9619652426   -0.8483571350    6.5083649519
C        1.2304929656   -1.7881368518    4.1258192767
C        3.3281952561   -2.2495054391    6.1257787970
C        0.8198702406   -0.6052468393    5.0341513696
N        1.8187781528   -0.1657777448    6.0583481426
O        0.6768996594   -2.8573051130    4.3243955971
S        2.9009613794    1.4459652356    7.6889123295
H        4.8428195723   -1.1035757466    0.2196172605
H        3.7313632477   -3.3054340992    0.5411345005
H        4.2717362096    0.8090772524    1.6965232266
H        2.0492964489   -3.5901596626    2.3609862105
H        2.6079119464    0.5414341575    3.4874339713
H        4.5587302331   -0.3572563728    7.9279020456
H        0.8527341062    1.7037472758    6.3476384398
H        2.4874165655   -2.9338561065    6.2548990804
H        3.6700755869   -2.3110531376    5.0908755192
H        4.1425745340   -2.5814790896    6.7714543940
H       -0.0698821092   -0.9346796994    5.5730942624
H        0.5742597477    0.2704205174    4.4323389684
27   
Generated by ForceBalance from scan.xyz: Frame 12 of 24
C       -0.2169247127   -0.3385039010    0.6572365957
C       -0.2905912576   -1.6945649594    1.0052140562
C        0.4877341752    0.5595938400    1.4673289842
C        0.3349960237   -2.1528606477    2.1604546498
C        1.1255292048    0.1028326909    2.6200164787
C        0.5237617624    0.7175858247    7.6861872532
C        2.8022293445    0.6467196632    6.8952533740
C        1.0524530573   -1.2576586267    2.9791675857
C        0.6571967222   -0.1099162490    6.6054178129
C        1.6688281873   -1.7892204052    4.2101389061
C       -0.4677488109   -0.8926124351    6.0008501775
C        2.6157588370   -0.8868285728    5.0334005998
N        1.9932013850   -0.1278113218    6.1674741980
O        1.5071574699   -2.9312310340    4.6148410877
S        2.0145087445    1.4502056155    8.1520219886
H       -0.7058507691    0.0171607974   -0.2453582025
H       -0.8354157358   -2.3884415008    0.3720004665
H        0.5430916245    1.6093314414    1.1950534845
H        0.2847413382   -3.1984249476    2.4475396495
H        1.6653531190    0.8189592995    3.2335628401
H       -0.3870447728    0.9231050532    8.2323322661
H        3.8613255946    0.7372554184    6.6895630997
H       -0.6293124493   -0.6306480550    4.9533848198
H       -0.2890166068   -1.9672599854    6.0657660717
H       -1.3806763722   -0.6594676853    6.5507696195
H        3.1282495262   -0.1561263606    4.4086151221
H        3.3491683451   -1.5613341773    5.4771228381
27   
Generated by ForceBalance from scan.xyz: Frame 13 of 24
C        3.8198165592   -1.5750012952    0.4776470878
C        3.1621472448   -2.7224394967    0.9430371505
C        3.7690582347   -0.3855578965    1.2130389513
C        2.4574708571   -2.6820893112    2.1412035980
C        3.0540852373   -0.3365584294    2.4092734794
C        2.9696967726   -0.4840336721    8.1980363682
C        1.2320542177    0.7743290299    7.0934570957
C        2.3921896403   -1.4861433380    2.8867668890
C        2.8436790328   -0.8424577693    6.8848803459
C        1.6505372690   -1.5238205763    4.1599669256
C        3.7287223317   -1.8330798333    6.1907626481
C        1.2839962687   -0.2102257499    4.8803995003
N        1.8323857964   -0.0861724739    6.2669296761
O        1.2470261326   -2.5560240196    4.6807337209
S        1.8515104226    0.7451489877    8.6620130626
H        4.3705840548   -1.6080376512   -0.4581907260
H        3.2016902819   -3.6425859742    0.3676994957
H        4.2831872982    0.5001493238    0.8521577530
H        1.9445883547   -3.5613176429    2.5177584158
H        3.0386769684    0.5973692830    2.9627578386
H        3.6788493945   -0.8834943344    8.9105703359
H        0.4134488053    1.4094484030    6.7799574588
H        3.2120559386   -2.7785867480    6.0191152668
H        4.0827135925   -1.4555569815    5.2286296958
H        4.6014526132   -2.0169929236    6.8193656192
H        0.1968316927   -0.2183908293    4.9697533281
H        1.5846078474    0.6834642536    4.3361787285
27   
Generated by ForceBalance from scan.xyz: Frame 14 of 24
C        3.5586413090   -1.6606197101    0.2599943970
C        3.0917785785   -2.7898251340    0.9471177931
C        3.4954163470   -0.3966525686    0.8566427927
C        2.5641907500   -2.6560443305    2.2266147555
C        2.9709481862   -0.2571522137    2.1411308574
C        2.5211006395   -0.7769769257    8.4029270615
C        1.0803082996    0.6864939983    7.1305187212
C        2.5007364745   -1.3872408816    2.8410426200
C        2.7497472736   -0.8825994643    7.0608794461
C        1.9258290512   -1.3281751503    4.1972744227
C        3.8460407033   -1.6932358467    6.4355703584
C        1.7308121023    0.0448514285    4.8750431178
N        1.9129990596   -0.0061097559    6.3492990607
O        1.5311943086   -2.3114726955    4.8111134455
S        1.2720479495    0.3556146012    8.7739886250
H        3.9694923633   -1.7658720682   -0.7401904140
H        3.1385053045   -3.7687484121    0.4793856142
H        3.8549186317    0.4768741084    0.3212173871
H        2.1910027839   -3.5184517976    2.7693288070
H        2.9349190326    0.7373073413    2.5741993603
H        3.0412807150   -1.3044468007    9.1913052380
H        0.3390867154    1.3698212321    6.7373154183
H        3.4835739849   -2.6760940639    6.1309496342
H        4.2637435096   -1.1957081505    5.5568093641
H        4.6513465588   -1.8201672318    7.1613574317
H        0.7087719214    0.3699506941    4.6741767363
H        2.4141858560    0.8024630902    4.4919481010
27   
Generated by ForceBalance from scan.xyz: Frame 15 of 24
C        3.3629913162   -1.6435671295    0.1465667728
C        2.9812978776   -2.7740025671    0.8819177838
C        3.3334959428   -0.3741923758    0.7356124561
C        2.5706813282   -2.6373550319    2.2040825365
C        2.9294406907   -0.2323333785    2.0621472742
C        2.2800792859   -0.8486743819    8.4298153809
C        0.9667706119    0.6026858767    7.0069936274
C        2.5451667469   -1.3641224932    2.8089292228
C        2.7307806333   -0.8553521935    7.1416937859
C        2.0906936481   -1.2833284421    4.2084812168
C        3.9435650822   -1.5782764298    6.6385762501
C        2.0576562548    0.1121948163    4.8777476515
N        1.9675447832    0.0150170484    6.3479728637
O        1.7057458450   -2.2441381767    4.8602545098
S        0.9081591367    0.1800349797    8.6403719300
H        3.6817356052   -1.7516341800   -0.8863690196
H        3.0025789741   -3.7561723249    0.4191558734
H        3.6256369217    0.4996369693    0.1610739274
H        2.2633180119   -3.5003121709    2.7859921939
H        2.9120294868    0.7643349243    2.4932133555
H        2.6935081148   -1.3974333175    9.2654498361
H        0.2573401615    1.2661591938    6.5303899337
H        3.6737495623   -2.5612610727    6.2487465881
H        4.4450450003   -1.0201290793    5.8439949761
H        4.6542418026   -1.7048305593    7.4572009933
H        1.1916066425    0.6688199575    4.5163407159
H        2.9530611834    0.6878099662    4.6338910522
27   
Generated by ForceBalance from scan.xyz: Frame 16 of 24
C        3.2418826297   -1.6344450599    0.1066456282
C        2.8042612678   -2.7606675395    0.8167830591
C        3.3232652262   -0.3876944434    0.7380538195
C        2.4486443064   -2.6428645582    2.1568071492
C        2.9711206080   -0.2645551195    2.0810292780
C        2.2163644648   -0.9478746644    8.4544897561
C        0.8607994833    0.3634085741    6.9325356347
C        2.5315323057   -1.3925081508    2.8021218528
C        2.7754967036   -0.8654402915    7.2131744859
C        2.1381690114   -1.3239981552    4.2200167092
C        4.0809393731   -1.4503837048    6.7753901797
C        2.2228758713    0.0575421461    4.9216461116
N        1.9824611239   -0.0796374131    6.3654953589
O        1.7368520703   -2.2784278726    4.8707859312
S        0.7111534824   -0.1019378738    8.5496027495
H        3.5186244680   -1.7280618424   -0.9397265927
H        2.7407457823   -3.7248567837    0.3212285104
H        3.6606055888    0.4824964394    0.1830782554
H        2.1029138955   -3.5026607220    2.7217155561
H        3.0408682321    0.7138242705    2.5479060634
H        2.6133325816   -1.4685539549    9.3155358095
H        0.1226300492    0.9489395114    6.4003778547
H        3.9219779785   -2.3034371428    6.1124330166
H        4.6964367097   -0.7102452348    6.2558006445
H        4.6368841091   -1.7916349182    7.6495947166
H        1.4762402826    0.7380607094    4.5091908202
H        3.2048706039    0.5127044661    4.7766556671
27   
Generated by ForceBalance from scan.xyz: Frame 17 of 24
C        3.1638733937   -1.6354091199    0.0593546196
C        2.6429705206   -2.7352222593    0.7545766940
C        3.3594960916   -0.4140755731    0.7150261426
C        2.3172868532   -2.6178148907    2.1023233022
C        3.0358023784   -0.2895284533    2.0650177684
C        2.1535562667   -0.8795660630    8.4634153264
C        0.7846648410    0.2220925706    6.7907454198
C        2.5124307676   -1.3918063086    2.7693579382
C        2.7999215666   -0.7586155898    7.2687748328
C        2.1505921400   -1.3167916058    4.1946652097
C        4.1770735564   -1.2276156292    6.9258687030
C        2.3574569068    0.0420963108    4.9208139384
N        1.9928848578   -0.0996373244    6.3345912104
O        1.6954157649   -2.2481103222    4.8432484597
S        0.5560286845   -0.2176833567    8.4062536586
H        3.4168737006   -1.7298237160   -0.9929597669
H        2.4923542790   -3.6800608023    0.2409420035
H        3.7626762437    0.4358363262    0.1727133396
H        1.9108556599   -3.4581515757    2.6561280411
H        3.1956230559    0.6685412717    2.5517597525
H        2.5307456999   -1.3362307854    9.3685451894
H        0.0328901392    0.7045118243    6.1797457386
H        4.1460035639   -1.9750472536    6.1285424239
H        4.8157315203   -0.3974174887    6.6084439698
H        4.6351996593   -1.6861039061    7.8028741526
H        1.7308108269    0.8172149786    4.4761386947
H        3.3944470471    0.3746028690    4.8561538696
27   
Generated by ForceBalance from scan.xyz: Frame 18 of 24
C        3.2138304807   -1.6808226667    0.0803426579
C        2.4800040393   -2.6989528540    0.7043541877
C        3.5434699632   -0.5145110499    0.7808521524
C        2.0739507048   -2.5547181483    2.0273680843
C        3.1438909823   -0.3663592862    2.1079544599
C        2.2329920104   -0.9537625734    8.4646338728
C        0.7427636060   -0.0533546414    6.7740169601
C        2.4059410984   -1.3857843590    2.7415970429
C        2.8737334288   -0.7241940442    7.2836414944
C        1.9492792018   -1.2770870904    4.1369814241
C        4.3078164447   -0.9946147256    6.9571270191
C        2.3389282187    0.0064790421    4.9282863410
N        1.9943809258   -0.1803586772    6.3397763089
O        1.2688909483   -2.1149939692    4.7114496199
S        0.5557955874   -0.5311678750    8.3838361968
H        3.5282835887   -1.7958830929   -0.9531597138
H        2.2266584497   -3.6006574231    0.1548277232
H        4.1091327172    0.2730429122    0.2921542983
H        1.5017905939   -3.3305901472    2.5259894518
H        3.4075023358    0.5489056975    2.6304643113
H        2.6590804677   -1.3575833789    9.3731861246
H       -0.0628798804    0.3095918288    6.1495810091
H        4.3965019960   -1.7013453996    6.1263474612
H        4.8402330768   -0.0752840962    6.6935247304
H        4.8033706282   -1.4318857195    7.8245947940
H        1.7873409431    0.8659960755    4.5401532575
H        3.4011156298    0.2313843948    4.8521683466
27   
Generated by ForceBalance from scan.xyz: Frame 19 of 24
C        0.5900336250   -1.0875528121    0.1589302949
C        0.1712854507   -2.1518323192    0.9690374686
C        1.1340264168    0.0663846249    0.7353488572
C        0.2943474248   -2.0654965889    2.3521295338
C        1.2665113293    0.1572979373    2.1198372247
C        3.0576446035   -0.4656941648    8.3013531291
C        0.8663694152   -0.0803027315    7.3307550011
C        0.8467574806   -0.9091222812    2.9398388811
C        3.1351734209   -0.0910400238    6.9937462103
C        0.9465062285   -0.8642185753    4.4076174965
C        4.3716076102    0.0661568460    6.1661720099
C        1.5821240176    0.4036058327    5.0539118178
N        1.8569873939    0.1458343972    6.4688960737
O        0.5371131468   -1.7422683451    5.1540894425
S        1.4187161709   -0.5440363378    8.8588617630
H        0.4913321925   -1.1566662811   -0.9207750816
H       -0.2513562227   -3.0442892979    0.5172887371
H        1.4531252438    0.8905721826    0.1046081380
H       -0.0288442847   -2.8780988798    2.9948103912
H        1.6865893519    1.0655028003    2.5425154537
H        3.8794957389   -0.7026827504    8.9634437808
H       -0.1776386704    0.0261916156    7.0706248650
H        4.3682039384   -0.6165464722    5.3107510286
H        4.4800650716    1.0907800456    5.7967514559
H        5.2470736891   -0.1648396833    6.7741357815
H        0.8855777624    1.2420871543    4.9705714834
H        2.5090688002    0.6912235495    4.5642784370
27   
Generated by ForceBalance from scan.xyz: Frame 20 of 24
C        0.5046423699   -1.0450647568    0.1134936231
C       -0.0013583444   -2.0812398745    0.9098926042
C        1.1577840299    0.0448450996    0.7012731393
C        0.1436405775   -2.0299381118    2.2926962150
C        1.3107874789    0.0990253524    2.0854282787
C        3.0529676526   -0.3553305972    8.3666073579
C        0.8901119997   -0.2513465018    7.2657527506
C        0.8039590313   -0.9387085355    2.8929774479
C        3.1654408583   -0.0389061990    7.0464821275
C        0.9246234366   -0.9313094769    4.3603578628
C        4.4266794945    0.2159379510    6.2825025614
C        1.6806967649    0.2636635886    5.0111869347
N        1.9013741151    0.0206988060    6.4404801896
O        0.4503389670   -1.7894333143    5.0917281609
S        1.4019778155   -0.5795810881    8.8428310602
H        0.3893181701   -1.0862900370   -0.9659592248
H       -0.5076184137   -2.9238812153    0.4485367859
H        1.5449381942    0.8470079983    0.0802797546
H       -0.2441983100   -2.8217224842    2.9254862092
H        1.8170280903    0.9573792707    2.5177484302
H        3.8564042326   -0.4709728535    9.0814868656
H       -0.1446788492   -0.2526851502    6.9558526021
H        4.5604239488   -0.5113262934    5.4755417789
H        4.4404236288    1.2226605216    5.8533080680
H        5.2809475154    0.1273752429    6.9547662070
H        1.0910643777    1.1765499693    4.8892384813
H        2.6447667379    0.4240276727    4.5353563527
27   
Generated by ForceBalance from scan.xyz: Frame 21 of 24
C        0.4186969711   -0.9751343761    0.0671666109
C       -0.1539554755   -1.9891141700    0.8465634049
C        1.1736151113    0.0390472194    0.6685392502
C        0.0260043452   -1.9911415000    2.2262875813
C        1.3595670836    0.0400397173    2.0496249567
C        3.0393999300   -0.2083870980    8.4143637036
C        0.9390913581   -0.4099970578    7.2075152924
C        0.7859874554   -0.9754901894    2.8406541353
C        3.1920644358    0.0135228589    7.0792744483
C        0.9417694964   -1.0262041583    4.3048120740
C        4.4634674456    0.3414941374    6.3610800224
C        1.8072223770    0.0841031695    4.9597381189
N        1.9656335123   -0.1160642856    6.4077716481
O        0.4285163901   -1.8791390236    5.0162368919
S        1.3946380723   -0.5598921317    8.8285475093
H        0.2764936066   -0.9746577146   -1.0098553195
H       -0.7384039124   -2.7733099273    0.3747074079
H        1.6137049729    0.8236835642    0.0605321866
H       -0.4105077083   -2.7678606901    2.8458506958
H        1.9470442969    0.8392742669    2.4923833044
H        3.8103221501   -0.1857946585    9.1727422539
H       -0.0732061292   -0.5362088945    6.8548170756
H        4.7269209403   -0.4350040102    5.6359470436
H        4.3945537462    1.3002447967    5.8379849912
H        5.2781569270    0.4116783114    7.0828699308
H        1.3471421188    1.0609459142    4.7865517374
H        2.7969792631    0.0968934782    4.5083650236
27   
Generated by ForceBalance from scan.xyz: Frame 22 of 24
C        4.9593618952   -3.5112752420    1.9937315833
C        3.8250107277   -4.1920242302    2.4551938561
C        5.2722130257   -2.2404425474    2.4910115188
C        3.0028213160   -3.6047881734    3.4119042576
C        4.4524829111   -1.6478744239    3.4495189472
C        1.1445887210    1.4444687124    8.2457396798
C        0.4951891149   -0.0352428231    6.4282393466
C        3.3089416855   -2.3255532488    3.9180345144
C        2.2153967747    1.0309798431    7.5132405148
C        2.4003968422   -1.7560744407    4.9301862029
C        3.6503650454    1.3961488091    7.7317290619
C        2.7690063160   -0.3599722627    5.4869074108
N        1.8135717390    0.1666890987    6.4800538501
O        1.4017044903   -2.3314789835    5.3431771590
S       -0.3404515423    0.7854809007    7.6475849923
H        5.6001969515   -3.9707736966    1.2464731849
H        3.5868554815   -5.1777910475    2.0669701934
H        6.1522103309   -1.7164629916    2.1304024657
H        2.1210323180   -4.1180225680    3.7815071501
H        4.7177065929   -0.6610326575    3.8177594735
H        1.1560126946    2.1002780543    9.1058757709
H        0.0207633021   -0.6691840418    5.6951678926
H        4.2522704072    0.5202357767    7.9942767855
H        4.0865729015    1.8652342894    6.8446499291
H        3.7208104159    2.1068466173    8.5560812201
H        2.8401551532    0.3599988379    4.6670841981
H        3.7460508411   -0.4185644440    5.9651017894
27   
Generated by ForceBalance from scan.xyz: Frame 23 of 24
C       -2.0816846848   -1.8099779604    1.9834237710
C       -1.0158141595   -2.7183830375    2.0199464880
C       -2.1206164484   -0.7318296767    2.8756721481
C        0.0094693314   -2.5513906092    2.9459258930
C       -1.0958713211   -0.5605069296    3.8042668306
C        3.3763069336    1.0681860610    8.3270761056
C        2.9703832210   -1.0066906876    7.1207822931
C       -0.0199063846   -1.4700186321    3.8490481114
C        2.3604066452    1.1867003567    7.4285874721
C        1.0985522217   -1.3496933287    4.8051095938
C        1.5380993434    2.4072783287    7.1564196493
C        1.0439819707   -0.1443316509    5.7663615881
N        2.1539160383   -0.0220734597    6.7381354998
O        2.0333294696   -2.1410638159    4.8449755823
S        4.0579963910   -0.5223769856    8.3217864523
H       -2.8817741622   -1.9414193411    1.2603861955
H       -0.9887006699   -3.5531900239    1.3260245274
H       -2.9482423495   -0.0295985418    2.8448755231
H        0.8424856410   -3.2454785145    2.9867623710
H       -1.1531100635    0.2846600249    4.4840043869
H        3.7563080747    1.8362986529    8.9871982030
H        2.9445030790   -1.9900075689    6.6741751035
H        1.6856093902    2.7722092180    6.1349109315
H        0.4710061282    2.2161948424    7.3042087152
H        1.8345812566    3.2032117557    7.8405736957
H        0.1120707190   -0.1817112748    6.3370065065
H        1.0322589274    0.7710276957    5.1732194610
27   
Generated by ForceBalance from scan.xyz: Frame 24 of 24
C       -2.0731868642   -1.7747047414    1.9578037723
C       -1.1362078538   -2.8017879051    2.1294271396
C       -1.9940375058   -0.6104545284    2.7313548168
C       -0.1211979269   -2.6676043503    3.0718914666
C       -0.9796852983   -0.4707028145    3.6763858374
C        3.3950375715    1.0679756973    8.3067019127
C        3.1784531461   -0.9228232082    6.9235600837
C       -0.0328446405   -1.4995998170    3.8553600447
C        2.3349649475    1.1470514790    7.4561991448
C        1.0685451182   -1.4225785227    4.8364663632
C        1.3677162559    2.2813554703    7.3241580743
C        1.1391802039   -0.1311441526    5.6744800882
N        2.2325440039   -0.0156485629    6.6688803436
O        1.8866663654   -2.3228503397    4.9876971328
S        4.2514197022   -0.4252278567    8.1322842527
H       -2.8651419068   -1.8806740232    1.2217550891
H       -1.2008664568   -3.7033044734    1.5275644189
H       -2.7221750193    0.1835387664    2.5956406546
H        0.6125057825   -3.4536008493    3.2175158863
H       -0.9437309174    0.4434573799    4.2617262287
H        3.7120935160    1.8131576421    9.0238777363
H        3.2261694278   -1.8655772384    6.3958906137
H        1.3719315794    2.7005608641    6.3133656299
H        0.3460982948    1.9694812852    7.5626872476
H        1.6454865021    3.0763053637    8.0171370520
H        0.1986602849   -0.0166186661    6.2182527423
H        1.2327278124    0.7195658621    4.9955989413
