23   

C        5.7000039984    1.7602111415    0.0652226714
C        4.7727680966    2.0879640607   -0.9234350266
C        5.4856006833    0.6380480998    0.8651666712
C        3.6365486255    1.2927406435   -1.1114235844
C        4.3483118657   -0.1559179112    0.6749331458
C        3.3976863882    0.1482551491   -0.3220298855
C        1.3270255824   -0.6473561058   -1.5648455358
C        2.1983112263   -0.6870352723   -0.5130619146
C        0.1892132226   -1.5997404686   -1.3689844973
C        1.7411792988   -1.7138808513    0.5142638396
C        0.8295703867   -2.5754298909   -0.3729920130
H        6.5808484119    2.3748711865    0.2125597850
H        4.9310625407    2.9611689585   -1.5459937780
H        6.2016099476    0.3797358741    1.6370456243
H        2.9307851995    1.5781864788   -1.8808306043
H        4.2252210653   -1.0149433526    1.3201337225
H        1.4458910517   -0.0288864570   -2.4460908208
H       -0.1209081078   -2.0962874678   -2.2938259998
H       -0.6561098408   -1.0751766119   -0.9115323839
H        1.1673354268   -1.2168682285    1.3029589862
H        2.5466275911   -2.3177692613    0.9401962013
H        0.1018299977   -3.1675891735    0.1908368934
H        1.4692693323   -3.2584096573   -0.9424397391
23   

C        5.6766886903    1.7465984565    0.0665799588
C        4.6709808721    2.1522270955   -0.8120348871
C        5.5464499845    0.5399924957    0.7562733863
C        3.5390799002    1.3507647163   -0.9997260304
C        4.4132841065   -0.2600648429    0.5665035555
C        3.3879415249    0.1268787584   -0.3171525404
C        1.4071579611   -0.7590295529   -1.6285643212
C        2.1913202213   -0.7122278493   -0.5124870485
C        0.2402920728   -1.6766198367   -1.4355961175
C        1.6315449795   -1.6215807353    0.5725220574
C        0.7810503411   -2.5578781381   -0.2999661953
H        6.5544410927    2.3658300161    0.2132077475
H        4.7652630819    3.0897672784   -1.3479877469
H        6.3253040650    0.2204125100    1.4392220828
H        2.7649725854    1.6874531687   -1.6783269815
H        4.3485327055   -1.1933550375    1.1101167494
H        1.6157133503   -0.2263660197   -2.5489613550
H       -0.0032069230   -2.2577483972   -2.3306050434
H       -0.6296257020   -1.1015436724   -1.1016175804
H        1.0016021948   -1.0384021817    1.2517944865
H        2.3876804477   -2.1786474837    1.1316471220
H       -0.0007658053   -3.0847266807    0.2562322440
H        1.4530619169   -3.2993700989   -0.7454938958
23   

C        5.6713874181    1.7393838628    0.0768844409
C        4.6016246924    2.2067060717   -0.6903570586
C        5.6120876500    0.4647471528    0.6458425081
C        3.4763862531    1.3981967030   -0.8885834560
C        4.4852066871   -0.3415989520    0.4455145433
C        3.4032627972    0.1089207824   -0.3287415061
C        1.4996782161   -0.8735557446   -1.6799114388
C        2.2086362474   -0.7352390689   -0.5238182256
C        0.3045395578   -1.7528624511   -1.4790195228
C        1.5561086867   -1.5166423168    0.6072323220
C        0.7488556925   -2.5246002369   -0.2259552184
H        6.5438767311    2.3641032348    0.2314293851
H        4.6414002144    3.1965329564   -1.1305567330
H        6.4398138076    0.0987807278    1.2425588838
H        2.6478523768    1.7728015357   -1.4778267740
H        4.4580231986   -1.3292477686    0.8891617800
H        1.7819405883   -0.4277088226   -2.6267469078
H        0.1110439152   -2.4168453402   -2.3273691723
H       -0.5746449414   -1.1362655136   -1.2648269438
H        0.8933965163   -0.8566569694    1.1760434888
H        2.2678458346   -2.0142028732    1.2721776952
H       -0.0797729138   -2.9826097144    0.3233699017
H        1.4346829407   -3.3157509335   -0.5477947725
23   

C        5.6726519228    1.7300691610    0.0829607970
C        4.5442027530    2.2474947780   -0.5591748935
C        5.6769642291    0.4013058570    0.5167880894
C        3.4240556432    1.4345542003   -0.7686015091
C        4.5547444854   -0.4086393305    0.3051472458
C        3.4191384829    0.0935790363   -0.3472131755
C        1.5873640540   -0.9993637331   -1.7196673662
C        2.2247493325   -0.7562099141   -0.5408781989
C        0.3648662167   -1.8375403244   -1.5063029195
C        1.4884616942   -1.4034335867    0.6223556556
C        0.7137047227   -2.4807998538   -0.1533395884
H        6.5409871944    2.3582702465    0.2465131837
H        4.5346851027    3.2788822733   -0.8927436899
H        6.5489900036   -0.0025608576    1.0183630783
H        2.5478905902    1.8418761050   -1.2592788521
H        4.5644522383   -1.4373617505    0.6453919127
H        1.9361765909   -0.6503395658   -2.6848858307
H        0.2117980080   -2.5836157117   -2.2923857783
H       -0.5136748604   -1.1904453081   -1.4141518073
H        0.8067629152   -0.6779740327    1.0776168543
H        2.1545769218   -1.8352247781    1.3755142982
H       -0.1570136413   -2.8673579012    0.3857140687
H        1.4015713975   -3.3109237436   -0.3471254127
23   

C        5.6786811501    1.7211883078    0.0745159714
C        4.4947029539    2.2798189547   -0.4159897652
C        5.7375603370    0.3528944092    0.3556521578
C        3.3731114612    1.4688605389   -0.6258677611
C        4.6136025204   -0.4545407619    0.1436546314
C        3.4231676683    0.0917078029   -0.3552662704
C        1.6764440304   -1.1360912425   -1.7350642081
C        2.2263393877   -0.7610091579   -0.5477672208
C        0.4322626276   -1.9406556019   -1.5172723595
C        1.4050403639   -1.2720187919    0.6261761707
C        0.6766146703   -2.4280292659   -0.0784031563
H        6.5479969510    2.3478066860    0.2389206831
H        4.4436068923    3.3409774072   -0.6315076399
H        6.6526718324   -0.0832228842    0.7396929194
H        2.4539731926    1.9044743213   -0.9998460109
H        4.6608225879   -1.5140355050    0.3664949030
H        2.1005964449   -0.9014036404   -2.7047071205
H        0.3268325101   -2.7702287393   -2.2234209123
H       -0.4431103494   -1.2842849576   -1.5619864466
H        0.7003248326   -0.4992139450    0.9492061359
H        2.0164461233   -1.6168565997    1.4658750140
H       -0.2343421681   -2.7496902484    0.4362327559
H        1.3679407142   -3.2762239657   -0.1276870121
23   

C        5.6882159185    1.7088274943    0.0661810221
C        4.4587913615    2.3004169599   -0.2393962989
C        5.7850284436    0.3174739803    0.1655121968
C        3.3289180960    1.4996500358   -0.4439795983
C        4.6526506535   -0.4796638509   -0.0406414594
C        3.4149758020    0.1014554919   -0.3468766136
C        1.7771296566   -1.2719756990   -1.7288611442
C        2.2139742305   -0.7465139839   -0.5519983296
C        0.5176138461   -2.0564398376   -1.5272347323
C        1.2995216499   -1.1329829327    0.6001637133
C        0.6369838008   -2.3712018923   -0.0256486092
H        6.5640542750    2.3274097394    0.2263405235
H        4.3794686603    3.3787527333   -0.3169790670
H        6.7363351947   -0.1446850710    0.4032873004
H        2.3759573300    1.9590611002   -0.6789797791
H        4.7289410629   -1.5577902251    0.0387039686
H        2.2934122197   -1.1601435601   -2.6755129751
H        0.4725915611   -2.9632336397   -2.1384895341
H       -0.3497931312   -1.4173818001   -1.7230519568
H        0.5668831474   -0.3384855928    0.7737217390
H        1.8410236175   -1.3715092322    1.5209564936
H       -0.3146730815   -2.6417290118    0.4426717560
H        1.3312611356   -3.2113097789    0.0835371531
23   

C        5.6974964466    1.6997656180    0.0678970527
C        4.4409399598    2.3021643388   -0.0452180531
C        5.8121693116    0.3088708182   -0.0166976233
C        3.3015368006    1.5124576115   -0.2394701665
C        4.6702671869   -0.4774284250   -0.2115856224
C        3.4037715480    0.1132658971   -0.3173723764
C        1.8794542125   -1.3990620076   -1.6766119514
C        2.1991330858   -0.7226865353   -0.5393253872
C        0.6037193455   -2.1632799151   -1.5022775596
C        1.1828758464   -0.9847798282    0.5616839568
C        0.5829166855   -2.2967019696    0.0303521025
H        6.5809261214    2.3097708140    0.2190114399
H        4.3483041472    3.3804796915    0.0162051751
H        6.7851654959   -0.1614422179    0.0681264360
H        2.3288073646    1.9812219201   -0.3311433215
H        4.7618701505   -1.5551964413   -0.2786488590
H        2.4917021967   -1.4110396167   -2.5711524673
H        0.6128853428   -3.1364654896   -2.0030356995
H       -0.2394697934   -1.5585140284   -1.8521966337
H        0.4349061693   -0.1857350225    0.5724783853
H        1.6378414540   -1.1053822800    1.5498680195
H       -0.4080605664   -2.5208100589    0.4376514379
H        1.2647476602   -3.1095113128    0.3027059570
23   

C        5.6962327082    1.6879641056    0.0832879214
C        4.4270544722    2.2708860896    0.1408030756
C        5.8216203904    0.3187262900   -0.1691283637
C        3.2858875338    1.4831937795   -0.0508619532
C        4.6781502872   -0.4661202678   -0.3605632211
C        3.3980327187    0.1026655345   -0.2941189738
C        1.9617452033   -1.5216556866   -1.6081928822
C        2.1942385425   -0.7234049831   -0.5290747895
C        0.6626674318   -2.2520471197   -1.4648062579
C        1.0815261581   -0.8594184213    0.4997002853
C        0.5097504527   -2.2183640081    0.0652083946
H        6.5810677120    2.2967262486    0.2311648831
H        4.3258543189    3.3332849302    0.3310319657
H        6.8044847147   -0.1359097480   -0.2180370400
H        2.3041400126    1.9403614681   -0.0135773558
H        4.7809036010   -1.5265815159   -0.5585635969
H        2.6491010631   -1.6413064912   -2.4378490914
H        0.6978061140   -3.2738383179   -1.8555083297
H       -0.1370184287   -1.6820018006   -1.9492727470
H        0.3466364288   -0.0607923956    0.3576155782
H        1.4467034310   -0.8728041376    1.5314704371
H       -0.5155409712   -2.3910038516    0.4074305553
H        1.1539649999   -3.0002300469    0.4816897731
23   

C        5.6998642507    1.6832697478    0.0959291271
C        4.4271318064    2.2239246453    0.2976502851
C        5.8330821800    0.3509417604   -0.3044702076
C        3.2903226880    1.4312886120    0.1007393514
C        4.6942988468   -0.4394510292   -0.5007597238
C        3.4092259711    0.0860422064   -0.2939578817
C        2.0303975058   -1.6369332775   -1.5399147070
C        2.2093248496   -0.7377691223   -0.5305899238
C        0.7053151626   -2.3237812458   -1.4210439705
C        1.0170345369   -0.7455788117    0.4153739512
C        0.4445515241   -2.1319633526    0.0817971582
H        6.5811635987    2.2962713454    0.2473676170
H        4.3194025569    3.2582448762    0.6037537566
H        6.8187543121   -0.0711047391   -0.4639618394
H        2.3071776580    1.8613278663    0.2506039940
H        4.8084566129   -1.4714031121   -0.8105024681
H        2.7672513565   -1.8535608025   -2.3047150616
H        0.7411895298   -3.3804754590   -1.7039880376
H       -0.0422486394   -1.7905821147   -2.0177142751
H        0.3153245083    0.0458339164    0.1335465547
H        1.3009069755   -0.6568041680    1.4687825391
H       -0.6065254591   -2.2507051680    0.3633474877
H        1.0382029600   -2.8776958765    0.6216009012
23   

C        5.6957665336    1.6864314440    0.1002356669
C        4.4269911439    2.1640931705    0.4370853401
C        5.8339137588    0.4048955715   -0.4384821782
C        3.2988524127    1.3603006975    0.2353977367
C        4.7042806823   -0.3972691823   -0.6394915405
C        3.4209505649    0.0658961469   -0.3031922162
C        2.0803932200   -1.7493920890   -1.4652918374
C        2.2279696074   -0.7665864348   -0.5296377703
C        0.7308218964   -2.3906641369   -1.3693313308
C        0.9755226386   -0.6562886704    0.3280681760
C        0.3826399843   -2.0529660602    0.0884760013
H        6.5700282172    2.3085062050    0.2554381882
H        4.3151401227    3.1590580234    0.8526180379
H        6.8168949868    0.0306149884   -0.7007429502
H        2.3217757476    1.7500388102    0.4939964385
H        4.8304774586   -1.3902621652   -1.0529903200
H        2.8474259562   -2.0512713392   -2.1686096796
H        0.7531218610   -3.4698141041   -1.5507230752
H        0.0378651453   -1.8984516471   -2.0597646982
H        0.3183757076    0.1215125900   -0.0738068759
H        1.1898980930   -0.4765285371    1.3863272445
H       -0.6871875125   -2.1185326438    0.3105138369
H        0.9182955152   -2.7589580969    0.7323840285
23   

C        5.6947102577    1.6944869528    0.0996287916
C        4.4420016485    2.0987751429    0.5654490965
C        5.8244024471    0.4753480618   -0.5686758744
C        3.3210436618    1.2850893368    0.3627961628
C        4.7026071224   -0.3373340263   -0.7707952188
C        3.4325919138    0.0533148632   -0.3090337852
C        2.1246086037   -1.8513145612   -1.3733480038
C        2.2461631201   -0.7920407375   -0.5187855407
C        0.7528735724   -2.4478935796   -1.3107627818
C        0.9427880510   -0.5740788432    0.2370283480
C        0.3210448432   -1.9698221581    0.0825945781
H        6.5629337910    2.3246646793    0.2560639538
H        4.3365644800    3.0453532478    1.0831657128
H        6.7954047184    0.1569146804   -0.9304494047
H        2.3615434975    1.6294491217    0.7277218003
H        4.8315035997   -1.2808309981   -1.2853494086
H        2.9166706287   -2.2348103434   -2.0047712833
H        0.7540089223   -3.5393806009   -1.3922889508
H        0.1215462864   -2.0044921455   -2.0879109324
H        0.3394361655    0.1824514673   -0.2749113982
H        1.0873835571   -0.3116176164    1.2897346021
H       -0.7626259439   -1.9862946384    0.2359538637
H        0.7898098026   -2.6283934795    0.8218838646
23   

C        5.6966325900    1.7040460545    0.0909192312
C        4.4764698760    2.0273538037    0.6868259166
C        5.7967987003    0.5600860009   -0.7024796430
C        3.3582652788    1.2080694924    0.4905651557
C        4.6784587447   -0.2586393192   -0.8984138174
C        3.4395211056    0.0501590050   -0.3058373391
C        2.1688977825   -1.9405405361   -1.2601453979
C        2.2580617444   -0.8081433185   -0.4991277687
C        0.7812407267   -2.5016045004   -1.2473932356
C        0.9101780687   -0.4979625792    0.1382523226
C        0.2601897815   -1.8871802794    0.0578785520
H        6.5621828675    2.3389146271    0.2431765918
H        4.3939037428    2.9159592366    1.3022531293
H        6.7422755362    0.3049226756   -1.1673397749
H        2.4306475755    1.4995917553    0.9649254731
H        4.7885357929   -1.1392111390   -1.5174058855
H        2.9906268081   -2.3993086263   -1.7956771847
H        0.7592966755   -3.5957575057   -1.2278009524
H        0.2213518148   -2.1206792651   -2.1079128987
H        0.3672642982    0.2268512183   -0.4768344558
H        0.9769297671   -0.1591160888    1.1762647353
H       -0.8319634310   -1.8650190324    0.1275647741
H        0.6515389960   -2.4866162951    0.8870629421
23   

C        5.7164752908    1.7159928649    0.0826736433
C        4.5492211982    1.9500214182    0.8117170666
C        5.7607641470    0.6626705462   -0.8320885437
C        3.4279244986    1.1318844830    0.6278450680
C        4.6395812811   -0.1549099830   -1.0154469304
C        3.4543747442    0.0641956737   -0.2890751920
C        2.2240235867   -1.9976766990   -1.1291210776
C        2.2742189628   -0.7995502354   -0.4736592417
C        0.8304801564   -2.5419233502   -1.1694242197
C        0.8901452267   -0.4153842120    0.0318861634
C        0.2218101395   -1.7987879784    0.0266858046
H        6.5842537890    2.3499113137    0.2259456477
H        4.5108436483    2.7672189097    1.5229925230
H        6.6641599467    0.4782352980   -1.4021608529
H        2.5469704909    1.3496164557    1.2156750379
H        4.6994108940   -0.9602103395   -1.7361272618
H        3.0796866083   -2.5121322620   -1.5490578448
H        0.7888463874   -3.6287492242   -1.0463333098
H        0.3440995581   -2.2412929435   -2.1032530618
H        0.4087107466    0.2570173980   -0.6853690908
H        0.8763091707    0.0131645367    1.0372498549
H       -0.8718249608   -1.7570934010    0.0070815840
H        0.5349166209   -2.3223570490    0.9365122674
23   

C        5.7118976242    1.7121991681    0.0766811575
C        4.6054937918    1.8531696525    0.9172293666
C        5.6921554595    0.7545579788   -0.9395782691
C        3.4807989648    1.0381480536    0.7413303565
C        4.5669263843   -0.0595838212   -1.1139882646
C        3.4431219064    0.0702795317   -0.2797042664
C        2.2558960336   -2.0535591492   -0.9952803510
C        2.2651530760   -0.7983991961   -0.4587912149
C        0.8650233370   -2.6009493981   -1.0760825124
C        0.8517030630   -0.3605040485   -0.1013692837
C        0.1783751444   -1.7384701128   -0.0069848922
H        6.5830190644    2.3429595121    0.2134239540
H        4.6184488193    2.5928709826    1.7095941676
H        6.5484436957    0.6420618698   -1.5947339753
H        2.6448112791    1.1632981269    1.4166938240
H        4.5669122893   -0.7921816449   -1.9117030240
H        3.1419069594   -2.6003272591   -1.2958674098
H        0.8086455701   -3.6693711283   -0.8451190847
H        0.4462688039   -2.3988292694   -2.0674432182
H        0.4301375972    0.2264813319   -0.9236016865
H        0.7707172988    0.1855117831    0.8419770114
H       -0.9110120616   -1.7013394430   -0.1070757889
H        0.4251527777   -2.1631944400    0.9720987108
23   

C        5.7102573164    1.7097853973    0.0786288281
C        4.6683543460    1.7506771479    1.0088846801
C        5.6256652480    0.8521298323   -1.0213793823
C        3.5426793145    0.9364979462    0.8367961046
C        4.4989253619    0.0387577647   -1.1909844175
C        3.4396109017    0.0748100277   -0.2706976421
C        2.2809289209   -2.1018315661   -0.8545087057
C        2.2654581360   -0.8032193318   -0.4396165551
C        0.8917700091   -2.6474736077   -0.9747091351
C        0.8376129369   -0.3191486278   -0.2340058953
C        0.1431671173   -1.6772055441   -0.0466898469
H        6.5827102692    2.3395332679    0.2114447596
H        4.7329037418    2.4104372922    1.8666074085
H        6.4329892410    0.8159743088   -1.7438964332
H        2.7488589148    0.9691193217    1.5728864146
H        4.4422655837   -0.6220425015   -2.0477996021
H        3.1830127367   -2.6725606073   -1.0427757535
H        0.8071917052   -3.6868331183   -0.6421491840
H        0.5435358606   -2.5445857481   -2.0077516406
H        0.4843390364    0.1810870500   -1.1413525579
H        0.7095818090    0.3287860498    0.6378475876
H       -0.9363402927   -1.6452602709   -0.2250135079
H        0.3177814034   -2.0013019507    0.9849793737
23   

C        5.7080474746    1.7093105562    0.0828040928
C        4.7419107746    1.6383706827    1.0905448472
C        5.5476851123    0.9624674219   -1.0880245494
C        3.6157112069    0.8238209809    0.9242837420
C        4.4202852348    0.1484860332   -1.2510662435
C        3.4370423665    0.0768424907   -0.2538317657
C        2.2890256360   -2.1396113529   -0.7003020378
C        2.2632693699   -0.8078743272   -0.4153209700
C        0.9027048908   -2.6802911095   -0.8684985472
C        0.8345858116   -0.2877179694   -0.3678701500
C        0.1042845096   -1.6134470980   -0.1003265706
H        6.5809829814    2.3394870765    0.2102950599
H        4.8656468632    2.2114952604    2.0023231588
H        6.2969203465    1.0122181046   -1.8698689198
H        2.8743660765    0.7647151749    1.7123545577
H        4.3019284931   -0.4307722551   -2.1592567604
H        3.1949558069   -2.7309215027   -0.7695477581
H        0.7757433681   -3.6799750136   -0.4412951031
H        0.6330301457   -2.6786244177   -1.9297812531
H        0.5589167904    0.1246731257   -1.3436823976
H        0.6635198051    0.4461257632    0.4256498383
H       -0.9583379807   -1.5884588778   -0.3617875350
H        0.1961433963   -1.8344727962    0.9685709311
23   

C        5.7069291635    1.7081678070    0.0888761142
C        4.8291863832    1.5055781104    1.1580362354
C        5.4612526409    1.0878990099   -1.1398788411
C        3.7061961241    0.6858448357    0.9954004053
C        4.3372213499    0.2683406728   -1.2984547044
C        3.4445102499    0.0644123029   -0.2375125344
C        2.2777259618   -2.1741669883   -0.5293905388
C        2.2654146535   -0.8187333144   -0.4041561714
C        0.8937090087   -2.7039255409   -0.7451381586
C        0.8530743617   -0.2675306500   -0.5254935841
C        0.0687383169   -1.5404393698   -0.1680212799
H        6.5769803591    2.3430026808    0.2129139560
H        5.0182862323    1.9815799133    2.1134334210
H        6.1412378972    1.2405666430   -1.9701940091
H        3.0293937119    0.5258011455    1.8264956804
H        4.1504408084   -0.2133264189   -2.2511162638
H        3.1703036201   -2.7850116552   -0.4560370703
H        0.7062655388   -3.6454592819   -0.2194577986
H        0.7064482422   -2.8187647128   -1.8179080127
H        0.6621124354    0.0370325082   -1.5594068476
H        0.6478902342    0.5549316324    0.1668147277
H       -0.9699586996   -1.5259085443   -0.5130639888
H        0.0730875791   -1.6388113841    0.9229015615
23   

C        5.7076551218    1.7143761430    0.0998449962
C        4.9332282440    1.3507958891    1.2056500259
C        5.3667726162    1.2452106542   -1.1724370798
C        3.8195270993    0.5196815908    1.0366584415
C        4.2524012392    0.4136893689   -1.3367531831
C        3.4681396699    0.0426152271   -0.2364538470
C        2.2543581541   -2.1909835775   -0.3551127620
C        2.2821843361   -0.8317888254   -0.4169077549
C        0.8711597603   -2.7076317019   -0.6045375578
C        0.9008259448   -0.2623437947   -0.7007623089
C        0.0502638979   -1.4577798143   -0.2411737588
H        6.5699811196    2.3587578995    0.2285087345
H        5.1939935138    1.7125109871    2.1937189393
H        5.9644417104    1.5255281706   -2.0322790910
H        3.2189089497    0.2392799402    1.8940301142
H        3.9891363304    0.0520730222   -2.3238506213
H        3.1147821848   -2.8085090657   -0.1237218084
H        0.6138934825   -3.5685485317    0.0204253106
H        0.7556197260   -2.9542837848   -1.6651668304
H        0.7866320346   -0.0864629754   -1.7750667276
H        0.6825121863    0.6468424061   -0.1318154654
H       -0.9614896058   -1.4609764425   -0.6589077773
H       -0.0228623171   -1.4141753678    0.8508320860
23   

C        5.6952040458    1.7204546688    0.1125924945
C        5.0283489914    1.1930279156    1.2223411624
C        5.2568758074    1.4042073395   -1.1768126575
C        3.9263489223    0.3491941337    1.0401660595
C        4.1545989953    0.5593483032   -1.3541526753
C        3.4830149147    0.0170012399   -0.2500041438
C        2.2156160834   -2.1860269860   -0.1936366888
C        2.2960650298   -0.8501953583   -0.4424731742
C        0.8358371958   -2.6976550295   -0.4700876592
C        0.9529046346   -0.2895329777   -0.8851059800
C        0.0360891542   -1.3908395673   -0.3282698660
H        6.5481154000    2.3751554249    0.2515282784
H        5.3622246889    1.4391090107    2.2238828408
H        5.7687822179    1.8145040792   -2.0397867002
H        3.4059325533   -0.0532428666    1.9013626935
H        3.8141895042    0.3198663509   -2.3547198986
H        3.0328489928   -2.7845860047    0.1924129564
H        0.5096484871   -3.4625900439    0.2415370727
H        0.7818587078   -3.0781357925   -1.4955008036
H        0.9082699912   -0.2555166895   -1.9782181660
H        0.7318447936    0.6927077219   -0.4556837917
H       -0.9475808412   -1.4244528835   -0.8072414411
H       -0.1023857541   -1.2001111469    0.7414032713
23   

C        5.6866611618    1.7274124209    0.1228401008
C        5.1242539480    1.0570957545    1.2129133478
C        5.1474466356    1.5513403021   -1.1548353373
C        4.0265358129    0.2095543460    1.0225660558
C        4.0498158159    0.7024179227   -1.3411669833
C        3.4840031792    0.0134044768   -0.2588623392
C        2.1737955939   -2.1484942662   -0.0572688331
C        2.3008388837   -0.8513616009   -0.4529803963
C        0.8051895750   -2.6710303061   -0.3663795352
C        0.9990084558   -0.3301332469   -1.0435278310
C        0.0254192745   -1.3465281847   -0.4257404795
H        6.5362751186    2.3849377572    0.2684771784
H        5.5353865508    1.1958195644    2.2063113905
H        5.5775855588    2.0736474494   -2.0017660579
H        3.5867035616   -0.3003299048    1.8716160267
H        3.6327350410    0.5734243275   -2.3329511253
H        2.9484378150   -2.7092203810    0.4532262836
H        0.4179764959   -3.3457924045    0.4034992046
H        0.8102508986   -3.1647595144   -1.3437966726
H        1.0237989017   -0.4230812654   -2.1338473830
H        0.7707576733    0.6981537168   -0.7457978242
H       -0.9263699907   -1.4215214488   -0.9611019634
H       -0.1762494275   -1.0322731794    0.6040028142
23   

C        5.6791241503    1.7308083534    0.1299979226
C        5.2140490314    0.9462452719    1.1886838654
C        5.0406801259    1.6704297236   -1.1116520058
C        4.1142715815    0.1004074410    1.0029612280
C        3.9412294469    0.8231543033   -1.2942997268
C        3.4691876097    0.0196370864   -0.2447253227
C        2.1207455048   -2.1023965346    0.0732743072
C        2.2924859941   -0.8486042713   -0.4338548388
C        0.7717342541   -2.6464407322   -0.2815846003
C        1.0423499095   -0.3878491906   -1.1694172031
C        0.0143095752   -1.3308727477   -0.5251179158
H        6.5305299822    2.3867297804    0.2723722278
H        5.7025732755    0.9947587865    2.1551749912
H        5.3959733323    2.2807011035   -1.9341211156
H        3.7533687371   -0.4957214897    1.8325859517
H        3.4525116753    0.7852774354   -2.2605724270
H        2.8495122743   -2.6196726770    0.6865730221
H        0.3227264835   -3.2408439449    0.5203100917
H        0.8405763265   -3.2332557801   -1.2035699596
H        1.1451838957   -0.5933742473   -2.2396242577
H        0.8031050853    0.6662390252   -0.9967270841
H       -0.8983872485   -1.4532100595   -1.1168518315
H       -0.2548404930   -0.9148144666    0.4518071871
23   

C        5.7053891144    1.7361096881    0.0561662827
C        5.0121521884    1.7604498409   -1.1560066224
C        5.2388710615    0.9408607421    1.1052956325
C        3.8531983778    0.9920259600   -1.3164087780
C        4.0793388633    0.1735472783    0.9425378711
C        3.3636531262    0.1897129285   -0.2672796349
C        1.1060795618   -0.3840157766   -1.2742333885
C        2.1527460967   -0.6308468774   -0.4338707671
C        0.0716523491   -1.4625526588   -1.1820703852
C        1.9406126267   -1.9410672215    0.3108802689
C        0.9369047480   -2.6106624131   -0.6399226791
H        6.6031904403    2.3307468731    0.1816854524
H        5.3730965457    2.3727356179   -1.9745063472
H        5.7748365367    0.9177992987    2.0472838682
H        3.3341622430    1.0143162305   -2.2667160078
H        3.7316741272   -0.4342153676    1.7690960046
H        1.0415512145    0.4641909430   -1.9454583857
H       -0.3830474014   -1.7065187780   -2.1473149946
H       -0.6965281262   -1.1767847848   -0.4558553744
H        1.4836556707   -1.7435146073    1.2858074212
H        2.8569183062   -2.5294583305    0.4220964371
H        0.3580001213   -3.4128203279   -0.1713699449
H        1.5006435399   -3.0300591045   -1.4803288888
23   

C        5.7041760391    1.7435233648    0.0606055217
C        4.9430441577    1.8737048508   -1.1018906785
C        5.3132041274    0.8334915055    1.0438345221
C        3.7936892227    1.0947467247   -1.2794182368
C        4.1632557076    0.0556860145    0.8643857540
C        3.3793782981    0.1687438242   -0.3003233518
C        1.1697806880   -0.4687914160   -1.3866713314
C        2.1709597129   -0.6530664534   -0.4754842674
C        0.1026815956   -1.5088867085   -1.2416236582
C        1.8821376580   -1.8757538466    0.3841812108
C        0.9060429652   -2.6149163910   -0.5429369068
H        6.5945051883    2.3463960514    0.1993762908
H        5.2429776753    2.5781404180   -1.8693078281
H        5.8999777262    0.7298256482    1.9494335317
H        3.2258674519    1.2109177689   -2.1936032507
H        3.8822739129   -0.6349087773    1.6496144216
H        1.1487773401    0.3117067253   -2.1373735449
H       -0.3097899415   -1.8390400079   -2.2001919412
H       -0.6926398505   -1.1334925916   -0.5891759226
H        1.3862580687   -1.5687362547    1.3106196052
H        2.7703796742   -2.4785408995    0.5978612329
H        0.2820789672   -3.3504929864   -0.0255089502
H        1.4969757717   -3.1318751903   -1.3068405659
23   

C        5.6942940195    1.7499714313    0.0641458615
C        4.8542905793    1.9846063596   -1.0241078176
C        5.3886117832    0.7274361076    0.9619916006
C        3.7135819957    1.1960431672   -1.2138379133
C        4.2471289738   -0.0599003464    0.7702995321
C        3.3840991549    0.1506362763   -0.3256557798
C        1.2336871004   -0.5614678559   -1.4899334395
C        2.1803592564   -0.6780998488   -0.5108310367
C        0.1310736559   -1.5570690625   -1.3065559138
C        1.8152727150   -1.8086268234    0.4413892663
C        0.8611418246   -2.6071632206   -0.4592345947
H        6.5781476218    2.3600062841    0.2126662825
H        5.0848189723    2.7796088462   -1.7240736115
H        6.0354460830    0.5430833144    1.8121712225
H        3.0827379009    1.4058819226   -2.0675624646
H        4.0439014351   -0.8353317358    1.4970274715
H        1.2700727345    0.1423776583   -2.3120551772
H       -0.2374118580   -1.9702473380   -2.2507704719
H       -0.6876968130   -1.1005331042   -0.7406488218
H        1.2888401533   -1.4043417942    1.3119322015
H        2.6674689543   -2.4219047508    0.7488387633
H        0.1882577768   -3.2700946294    0.0938465143
H        1.4719902669   -3.2143113475   -1.1361078912
