18   
Generated by ForceBalance from scan.xyz: Frame 1 of 24
C       -2.4692200470    0.5498190729    0.0448213078
C       -0.0284697173    1.0435832676    1.8740970622
C        0.7643037875    0.9354661781    3.8924481556
C        0.3473154283   -0.2812924430   -0.2223854066
C       -0.1164368579    1.0581513252    0.3620041383
N       -3.3198263695   -0.2351954958    0.2132318351
N        1.0972623316    1.0358014711    2.5207162718
N       -1.1550872328    1.0257451925    2.6769746568
N       -0.6502519462    0.7514366159    3.9670064802
N       -1.4596584048    1.4164306025   -0.1442192537
O        1.4986319205    0.9959866223    4.8567469341
H       -0.3106407105   -1.0970696477    0.0910045425
H        0.3441177017   -0.2275372516   -1.3136624658
H        1.3574424750   -0.4957148258    0.1305367632
H        0.5584168551    1.8451498420    0.0164395767
H       -1.9415075073    0.4373438827    2.3991799203
H       -1.1187622269    1.2590131823    4.7127226345
H       -1.7260226165    2.3871601251   -0.0083230282
18   
Generated by ForceBalance from scan.xyz: Frame 2 of 24
C       -2.4717365059    0.6696125746    0.0259291491
C       -0.0242382222    1.0564307485    1.8773595760
C        0.7628849899    1.0948506868    3.9013127488
C        0.2748994874   -0.3244157382   -0.1985634085
C       -0.1037038168    1.0497268697    0.3665378464
N       -3.3494562545   -0.0884880678    0.1767280679
N        1.0780380085    1.2680749521    2.5327396389
N       -1.1280738106    0.8262311440    2.6734022728
N       -0.5922525965    0.6446117713    3.9663052255
N       -1.4201391649    1.4888509673   -0.1513082199
O        1.4665989581    1.2869899024    4.8714813332
H       -0.4363925442   -1.0945686831    0.1135337347
H        0.2861908440   -0.2828629662   -1.2903560079
H        1.2672260358   -0.6008187603    0.1632615399
H        0.6236199495    1.7864560163    0.0190415665
H       -1.8215291112    0.1353542319    2.3883230763
H       -1.1524142645    1.0547516699    4.7090425472
H       -1.6361361191    2.4675970929    0.0151611327
18   
Generated by ForceBalance from scan.xyz: Frame 3 of 24
C       -2.4655023563    0.7864947721    0.0108413921
C       -0.0148028428    1.0445745749    1.8716704470
C        0.7230458095    1.2456966071    3.9058222417
C        0.2097183009   -0.3671795370   -0.2031251100
C       -0.0841648028    1.0265973474    0.3615116915
N       -3.3781306680    0.0675248214    0.1426565728
N        1.0200896821    1.4630804179    2.5385952099
N       -1.0692775786    0.6286005581    2.6581236734
N       -0.5283869440    0.5576564806    3.9597769646
N       -1.3693484759    1.5485734814   -0.1610186708
O        1.3668392456    1.5726263964    4.8816394626
H       -0.5494460296   -1.0945516383    0.0986659460
H        0.2310755565   -0.3248333541   -1.2947312698
H        1.1814615044   -0.7077343376    0.1614459124
H        0.6884165883    1.7181847008    0.0202947740
H       -1.6357873068   -0.1682611989    2.3735912860
H       -1.1639368556    0.8679047958    4.6903683565
H       -1.5276841823    2.5347839396    0.0262547941
18   
Generated by ForceBalance from scan.xyz: Frame 4 of 24
C       -2.4675476466    0.8964878258    0.0050117719
C       -0.0107550674    1.0220100601    1.8612960695
C        0.6404661246    1.3927483865    3.9021640358
C        0.1320197712   -0.4151888293   -0.2171213813
C       -0.0728836911    0.9911980573    0.3518046750
N       -3.4250216029    0.2360434279    0.1211949000
N        0.9187043855    1.6345759783    2.5347328846
N       -0.9835360823    0.4334847219    2.6420230186
N       -0.4634864277    0.4865046218    3.9529305731
N       -1.3268049947    1.5918524605   -0.1664126302
O        1.1959426077    1.8503348664    4.8796452485
H       -0.6845779701   -1.0895950913    0.0573285173
H        0.1793091287   -0.3672670840   -1.3075455184
H        1.0690366813   -0.8309596527    0.1615892770
H        0.7368933555    1.6386111382    0.0112540020
H       -1.3860685059   -0.4595836574    2.3678006132
H       -1.1591851107    0.6893405366    4.6663840599
H       -1.4226570737    2.5845491470    0.0299570751
18   
Generated by ForceBalance from scan.xyz: Frame 5 of 24
C       -2.4496717512    1.0167369330    0.0130593211
C        0.0060987226    1.0024398670    1.8631663080
C        0.5388177477    1.5265198606    3.9048197318
C        0.0650374937   -0.4511927253   -0.2218596692
C       -0.0481256530    0.9609088283    0.3540417919
N       -3.4512862026    0.4232322667    0.1153835099
N        0.7965095579    1.7865782721    2.5367722375
N       -0.8550396774    0.2585086849    2.6420496309
N       -0.3805811033    0.4335109267    3.9594959663
N       -1.2668877382    1.6398165822   -0.1553583872
O        0.9820147302    2.0975520572    4.8798180459
H       -0.7937523764   -1.0737200195    0.0472519500
H        0.1100126544   -0.3998779130   -1.3121147184
H        0.9757688435   -0.9308351120    0.1464939634
H        0.7944332949    1.5637224589    0.0116767033
H       -1.0658302444   -0.7019159200    2.3832384949
H       -1.1164353827    0.5188581332    4.6562291109
H       -1.2976297839    2.6350444123    0.0500322195
18   
Generated by ForceBalance from scan.xyz: Frame 6 of 24
C       -2.4291632849    1.1343736204    0.0128498199
C        0.0142868212    0.9904594638    1.8600793593
C        0.4157004640    1.6503746159    3.8921453711
C       -0.0152847749   -0.4892760435   -0.2179714354
C       -0.0328406135    0.9282731863    0.3512556327
N       -3.4710910911    0.6137792205    0.1069613617
N        0.6389765919    1.9211821363    2.5206107010
N       -0.7021741637    0.1156400285    2.6496510098
N       -0.2851760412    0.4061149677    3.9662897259
N       -1.2089362420    1.6828901242   -0.1548538381
O        0.7320929899    2.3159049339    4.8562131533
H       -0.9114223596   -1.0523915828    0.0601646520
H        0.0223049164   -0.4449022924   -1.3086707498
H        0.8677216953   -1.0269366768    0.1389697649
H        0.8412304861    1.4788659530   -0.0003011758
H       -0.7110810646   -0.8731179248    2.4126208468
H       -1.0341995306    0.3704986886    4.6533091334
H       -1.1766001035    2.6742387164    0.0704697073
18   
Generated by ForceBalance from scan.xyz: Frame 7 of 24
C       -2.3851448445    1.2606963991    0.0009460679
C        0.0122975549    0.9951244977    1.8798115600
C        0.2635618278    1.7576201879    3.9001400238
C       -0.0830909545   -0.5061897363   -0.1879472289
C       -0.0136127502    0.9126015036    0.3697178826
N       -3.4575715765    0.8034319498    0.0773268940
N        0.4433491950    2.0389750103    2.5254102041
N       -0.5306898800    0.0143562386    2.6825582890
N       -0.1870618946    0.4026767301    3.9954074310
N       -1.1327762626    1.7405900973   -0.1505112053
O        0.4388748712    2.4878476013    4.8530135004
H       -0.9972425657   -1.0210796241    0.1219781508
H       -0.0740809435   -0.4703921347   -1.2794802828
H        0.7843211140   -1.0852722868    0.1429074398
H        0.8956726921    1.4046728346    0.0186841762
H       -0.3446833284   -0.9613608460    2.4643486658
H       -0.9227732433    0.2392567758    4.6783594994
H       -1.0469024721    2.7200640793    0.1129230697
18   
Generated by ForceBalance from scan.xyz: Frame 8 of 24
C       -2.3521276817    1.3668832308   -0.0645078140
C       -0.0169530530    0.9774560767    1.8759647289
C        0.1196538519    1.8040593750    3.8825058141
C       -0.1833965924   -0.5420634336   -0.1779241720
C       -0.0239913188    0.8750734085    0.3649129713
N       -3.4511117753    0.9732346677   -0.0220279134
N        0.2126157408    2.0943322056    2.5025818628
N       -0.3422378269   -0.0777046047    2.6995316678
N       -0.0552070520    0.3866508005    4.0010064888
N       -1.0700019795    1.7775305413   -0.1796370068
O        0.1689419798    2.5657553782    4.8251054093
H       -1.1154867536   -1.0035321783    0.1593019095
H       -0.1935322793   -0.5147189477   -1.2696415700
H        0.6593375766   -1.1663649154    0.1352387337
H        0.9238011114    1.2949659439    0.0182574479
H        0.0179975373   -1.0044133321    2.4858233247
H       -0.7360526944    0.0965222605    4.6988423007
H       -0.9394067211    2.7381509894    0.1338056377
18   
Generated by ForceBalance from scan.xyz: Frame 9 of 24
C       -2.3498202001    0.7398779509   -0.5877569151
C       -0.0853044225    1.1589536751    2.2292570263
C       -0.2297865449    1.7259391600    4.3237250293
C        0.4826964154    0.0393030871    0.0091260860
C       -0.3707587315    1.0670118702    0.7508864359
N       -2.7869679275    0.6921749621   -1.6705889973
N       -0.8646026467    1.7832908393    3.0612588613
N        1.0328742650    0.5990972840    2.8086822982
N        1.0581500446    1.1374722905    4.1141064412
N       -1.8088357689    0.7285561931    0.6445463121
O       -0.6489835512    2.0882450085    5.4017596670
H        0.3719073631   -0.9536713486    0.4515151264
H        0.1740693663   -0.0097825565   -1.0377724120
H        1.5391397425    0.3274308511    0.0201489911
H       -0.1841789753    2.0664098108    0.3317189311
H        1.9192901856    0.6467486463    2.3114793314
H        1.3482654504    0.4726718874    4.8268814702
H       -2.3710012768    1.1878455699    1.3606909550
18   
Generated by ForceBalance from scan.xyz: Frame 10 of 24
C       -2.3505785848    0.9034411587   -0.5929377431
C       -0.0782751686    1.1145938997    2.2356223271
C       -0.2700663868    1.6122929117    4.3445581457
C        0.4306856348   -0.0898255944    0.0519072630
C       -0.3602131599    1.0131526532    0.7585809340
N       -2.7869667686    0.9552063323   -1.6761499914
N       -0.9394835735    1.5627030788    3.0988618932
N        1.1432181049    0.7695514612    2.7770621150
N        1.0993568618    1.2847011060    4.0928487873
N       -1.8119936803    0.7811708651    0.6320666992
O       -0.7226082118    1.8743953328    5.4376649297
H        0.2295706301   -1.0614712970    0.5088078131
H        0.1421961148   -0.1298517859   -1.0012817314
H        1.5064935274    0.1089741869    0.0898520321
H       -0.0912114137    1.9869616843    0.3206072989
H        1.9868361053    1.0092312399    2.2603785712
H        1.5290329222    0.6762537566    4.7851929220
H       -2.3506247449    1.1917543728    1.3947674085
18   
Generated by ForceBalance from scan.xyz: Frame 11 of 24
C       -2.3367447232    1.0614218878   -0.5934793822
C       -0.0669926916    1.0885825905    2.2390870129
C       -0.2891832658    1.4740544005    4.3685321816
C        0.3790876970   -0.2040148312    0.1038527802
C       -0.3487500748    0.9724740234    0.7644052413
N       -2.7662974589    1.2038357801   -1.6716530294
N       -0.9711862183    1.3491316073    3.1332409618
N        1.2106080127    0.9396684997    2.7454029474
N        1.1083681958    1.3955950783    4.0811344013
N       -1.8064901866    0.8415859502    0.6185379188
O       -0.7556083616    1.6190637208    5.4772758496
H        0.0932334519   -1.1440121615    0.5815228925
H        0.1113328558   -0.2501660137   -0.9546980208
H        1.4646758918   -0.0849348982    0.1729224492
H       -0.0055731916    1.9104084683    0.3001362296
H        1.9795010348    1.3567050245    2.2239695003
H        1.6515704977    0.8468784769    4.7428885652
H       -2.3362485775    1.1802261302    1.4211983708
18   
Generated by ForceBalance from scan.xyz: Frame 12 of 24
C       -2.3072509214    1.1936434289   -0.6133362517
C       -0.0548027079    1.0644799329    2.2248821295
C       -0.2934674934    1.3075968486    4.3734370015
C        0.3302709335   -0.3154497864    0.1471671559
C       -0.3315475148    0.9314449039    0.7514892320
N       -2.7247796126    1.4118430295   -1.6840690353
N       -0.9713183961    1.1337633312    3.1403597577
N        1.2418513001    1.0977479944    2.7078743972
N        1.0923389111    1.4656798147    4.0672149242
N       -1.7889455983    0.8987733254    0.5837174107
O       -0.7568273367    1.3213921172    5.4927366235
H       -0.0304050711   -1.2155351586    0.6510220522
H        0.0787254771   -0.3807854873   -0.9145004023
H        1.4189774573   -0.2649342960    0.2424652871
H        0.0795136439    1.8248070769    0.2570583377
H        1.9139436140    1.6717201079    2.2015404866
H        1.7276957154    0.9788156383    4.6943494398
H       -2.3283154734    1.1331373466    1.4152515220
18   
Generated by ForceBalance from scan.xyz: Frame 13 of 24
C       -2.2578575138    1.1041007484   -0.5761168944
C        0.0087670341    1.0476961583    2.2810544374
C       -0.2301977683    1.0480778801    4.4422003882
C        0.2259184568   -0.3107305806    0.1902152233
C       -0.2669506826    1.0137418283    0.8025794457
N       -2.7039870312    1.0249653814   -1.6545733231
N       -0.9045087944    0.9624970949    3.1975893189
N        1.3042067819    1.1248522234    2.7638773790
N        1.1388849338    1.3327351903    4.1544020474
N       -1.7076289796    1.2371632258    0.6350437220
O       -0.6845796105    0.9069179256    5.5563895891
H       -0.2658154868   -1.1585727841    0.6751452578
H       -0.0075823391   -0.3321614130   -0.8772167129
H        1.3078703113   -0.4115124250    0.3137909118
H        0.2682402764    1.8456155125    0.3261361402
H        1.9215736796    1.8039382252    2.3218578947
H        1.8115224799    0.8297640037    4.7274431851
H       -2.2764664675    1.0157037943    1.4497112478
18   
Generated by ForceBalance from scan.xyz: Frame 14 of 24
C       -2.2186013489    1.2493136113   -0.8366792305
C       -0.0342652162    1.0233347701    2.0763768490
C       -0.2803298224    0.9029459760    4.2319494124
C        0.1044744626   -0.4067366131    0.0357802394
C       -0.2940583989    0.9712403055    0.5963816694
N       -2.6201056133    1.2497210987   -1.9349055903
N       -0.9260563527    0.7552398586    2.9783487477
N        1.2295928038    1.2901646945    2.5733648218
N        1.0282834006    1.4118056431    3.9693876021
N       -1.7152210820    1.3012972662    0.4048043021
O       -0.7109809549    0.6507282796    5.3360430910
H       -0.4610655382   -1.1965124890    0.5378485706
H       -0.1095561864   -0.4434472832   -1.0355583672
H        1.1729583603   -0.5864588174    0.1858149366
H        0.3009620261    1.7458604197    0.0983448149
H        1.7269794161    2.0792824171    2.1637742195
H        1.7702073614    0.9998154719    4.5293466006
H       -2.3196674724    0.9798403736    1.1588691920
18   
Generated by ForceBalance from scan.xyz: Frame 15 of 24
C       -2.1269574282    1.3859986333   -0.8686931955
C       -0.0131226688    0.9827856723    2.0770310494
C       -0.2282923501    0.7886329858    4.2295283271
C        0.0249829542   -0.5041686189    0.0713327368
C       -0.2718156290    0.9099780610    0.5976434125
N       -2.4861028624    1.4747443362   -1.9775889225
N       -0.8377983923    0.5399446513    2.9746777516
N        1.1810176361    1.4673518394    2.5766445920
N        0.9676270743    1.5293212654    3.9734208463
N       -1.6689503108    1.3426298794    0.3938793954
O       -0.6029431996    0.4514467831    5.3315986604
H       -0.5959547241   -1.2383037927    0.5913594251
H       -0.1869827826   -0.5493747018   -1.0002928954
H        1.0775231617   -0.7573980541    0.2300635796
H        0.3712399915    1.6309744737    0.0816400094
H        1.5320031186    2.3354653743    2.1751538798
H        1.7737325692    1.2512817423    4.5271609568
H       -2.3134169077    0.9564366000    1.0816541078
18   
Generated by ForceBalance from scan.xyz: Frame 16 of 24
C       -1.6483174720    1.8875241348   -1.2231361564
C        0.0043250853    1.0506799704    1.9155503595
C       -0.4396755212    0.5563739937    3.9825977386
C        0.3134459889   -0.2302838972   -0.2145136923
C       -0.0493610485    1.1219624777    0.4134347874
N       -1.8180489363    2.1969762132   -2.3373338295
N       -0.7798195323    0.3044882712    2.6305534035
N        0.9379919188    1.7679649844    2.6381145067
N        0.5285533967    1.6086544917    3.9813335665
N       -1.4103996780    1.5952940848    0.0689756025
O       -0.8525420361    0.0069155073    4.9811004652
H       -0.3644156667   -1.0081810564    0.1455944630
H        0.2415341102   -0.1613706793   -1.3033556536
H        1.3374097600   -0.5110160370    0.0504834170
H        0.6496631891    1.8885955171    0.0650884006
H        1.0905211193    2.7373877838    2.3631551906
H        1.2962338150    1.4915874316    4.6375809928
H       -2.1453011161    1.0579032576    0.5253456156
18   
Generated by ForceBalance from scan.xyz: Frame 17 of 24
C       -1.5332380801    2.0388118650   -1.1719781711
C        0.0910132528    0.9716718228    1.9009408461
C       -0.2635394383    0.4403284463    3.9761326403
C        0.2531926151   -0.3243575869   -0.2493030848
C        0.0068339082    1.0406574956    0.3984259571
N       -1.6735714389    2.4601781743   -2.2529253989
N       -0.5283009739    0.0932281919    2.6274505794
N        0.8452880566    1.8843854643    2.6139652286
N        0.4597361027    1.6730883109    3.9565631721
N       -1.3280401679    1.6150228405    0.0901487892
O       -0.5638442108   -0.1623459367    4.9843348956
H       -0.4593514228   -1.0602138984    0.1308639798
H        0.1484190193   -0.2401742735   -1.3344019920
H        1.2638799173   -0.6764983581   -0.0219862566
H        0.7437701165    1.7635903999    0.0365497738
H        0.7923433686    2.8574431911    2.3144056749
H        1.2240037527    1.7390051222    4.6237774478
H       -2.0954812606    1.0684401983    0.4760754745
18   
Generated by ForceBalance from scan.xyz: Frame 18 of 24
C       -1.4098907421    2.1621339401   -1.1460245422
C        0.1248953554    0.9377564773    1.9039704744
C       -0.1368695196    0.3949622132    3.9898220207
C        0.1599414199   -0.4010931256   -0.2354212216
C        0.0282505057    0.9823508475    0.3999884475
N       -1.4991451110    2.6519707525   -2.2030895940
N       -0.3205954771   -0.0269781420    2.6476741316
N        0.6813935469    1.9966631657    2.5997559689
N        0.3274707934    1.7442488059    3.9440659323
N       -1.2638139342    1.6568411376    0.0953154830
O       -0.3220235459   -0.2344144782    5.0095776651
H       -0.5987197691   -1.0798921336    0.1610609626
H        0.0474582867   -0.3180073095   -1.3197768044
H        1.1424679859   -0.8284043734   -0.0157829104
H        0.8100879540    1.6468602826    0.0214083371
H        0.4341987086    2.9312770936    2.2751635385
H        1.0528492627    1.9786933149    4.6166160796
H       -2.0732075498    1.1313121145    0.4199678955
18   
Generated by ForceBalance from scan.xyz: Frame 19 of 24
C       -1.2736017137    2.2410062268   -1.1261164484
C        0.1462679042    0.9456079347    1.9484277402
C       -0.0013753469    0.4078443711    4.0471693079
C        0.0786083649   -0.4480332105   -0.1603372601
C        0.0470800363    0.9539611841    0.4423915857
N       -1.3082316493    2.7479234121   -2.1780508011
N       -0.1117682521   -0.0686206094    2.7141769429
N        0.4993090701    2.1046388802    2.6195938991
N        0.2012353661    1.8178613007    3.9712942268
N       -1.1920500452    1.7138013795    0.1132558533
O       -0.0606727413   -0.2251666815    5.0799183220
H       -0.7343349541   -1.0601047451    0.2376907188
H       -0.0127069315   -0.3801792674   -1.2477312715
H        1.0202492872   -0.9459995521    0.0851456482
H        0.8747234214    1.5519588913    0.0501065901
H        0.0757503381    2.9664625751    2.2763532342
H        0.8708718278    2.1984340800    4.6347397939
H       -2.0417202377    1.2308743382    0.3993777190
18   
Generated by ForceBalance from scan.xyz: Frame 20 of 24
C       -1.1615281636    2.3081058016   -1.1189995787
C        0.1612456295    0.9228805287    1.9600971567
C        0.1782606756    0.3663252389    4.0587986339
C       -0.0164167851   -0.4885786781   -0.1321564629
C        0.0472277137    0.9187244043    0.4544774804
N       -1.1489940666    2.8336904571   -2.1619393353
N        0.1100441775   -0.1218293462    2.7270145229
N        0.3233185585    2.1252176371    2.6279418727
N        0.1233798613    1.7899114892    3.9862069745
N       -1.1386885244    1.7562305056    0.1134422241
O        0.2661344800   -0.2680310768    5.0888268210
H       -0.8750228403   -1.0372691382    0.2637259944
H       -0.0934738253   -0.4267994171   -1.2210033985
H        0.8827506978   -1.0507585638    0.1304032730
H        0.9118109449    1.4548324694    0.0518827991
H       -0.2499344617    2.9007596889    2.2974347410
H        0.7354431142    2.2827461739    4.6311243984
H       -2.0203148640    1.3085570296    0.3582914007
18   
Generated by ForceBalance from scan.xyz: Frame 21 of 24
C       -1.0439163263    2.3876339925   -1.1584377117
C        0.1492591566    0.9007103407    1.9179678093
C        0.3456465364    0.3439529901    4.0068236786
C       -0.1153329471   -0.5246649988   -0.1547658995
C        0.0251725848    0.8848543140    0.4130670200
N       -0.9613308311    2.9551689959   -2.1757345510
N        0.3141534457   -0.1412395956    2.6741378870
N        0.1232352584    2.1067242292    2.5935342179
N        0.0356219096    1.7368405713    3.9538831288
N       -1.1068305185    1.7834917044    0.0483913687
O        0.5839598108   -0.2686456471    5.0263604237
H       -1.0149731438   -1.0123964751    0.2317900249
H       -0.1692332229   -0.4765386949   -1.2456566648
H        0.7403131354   -1.1371326594    0.1366477627
H        0.9228565993    1.3619466444    0.0077415632
H       -0.5661632919    2.7901990187    2.2850968417
H        0.5776084856    2.3262036179    4.5803509818
H       -2.0164716631    1.3585957951    0.2208220748
18   
Generated by ForceBalance from scan.xyz: Frame 22 of 24
C       -0.8871769036    2.4909349998   -1.1256706803
C        0.1439009061    0.8997556631    1.9278421093
C        0.5136027229    0.3962841767    4.0064022685
C       -0.2002526950   -0.5628212164   -0.1052603539
C        0.0110894914    0.8537271544    0.4239478569
N       -0.7092078997    3.1333119244   -2.0846201884
N        0.5274468293   -0.0904031805    2.6762864674
N       -0.0725995971    2.0817872658    2.6050129296
N       -0.0457545696    1.7121065579    3.9670169685
N       -1.0672534342    1.7962497385    0.0181806696
O        0.8910233589   -0.1571415602    5.0180251504
H       -1.1381647715   -0.9830595161    0.2718333882
H       -0.2255101756   -0.5487456374   -1.1981284050
H        0.6095102491   -1.2131952014    0.2304351412
H        0.9388303997    1.2645454579    0.0136127926
H       -0.8595473077    2.6578607571    2.3146556634
H        0.4084030391    2.3920658552    4.5713281594
H       -1.9961845092    1.3833921191    0.0776524172
18   
Generated by ForceBalance from scan.xyz: Frame 23 of 24
C       -0.6769044855    2.8229153814   -0.6818868510
C        0.2343470346    0.8818437149    1.7846351871
C        0.8030293943    0.5785672961    3.8560650408
C       -0.3254987783   -0.7461626792   -0.0405767314
C        0.0341636830    0.7008605135    0.2971646044
N       -0.3738285560    3.8854008462   -1.0611546534
N        0.8784831710    0.0486756320    2.5463886377
N       -0.2432985716    2.0002014706    2.4297855389
N       -0.0624522630    1.7176400771    3.7996697377
N       -1.0277552978    1.6190101310   -0.1876644949
O        1.3451000194    0.1823156108    4.8668496216
H       -1.2975851796   -1.0134821929    0.3870260082
H       -0.3564894842   -0.8850938883   -1.1252116827
H        0.4224575622   -1.4154611820    0.3859712684
H        0.9802953018    0.9602060442   -0.1902909009
H       -1.1644148559    2.3432304330    2.1657230884
H        0.2423106986    2.5176967561    4.3482688354
H       -1.7705975500    1.1622847650   -0.7071093160
18   
Generated by ForceBalance from scan.xyz: Frame 24 of 24
C       -2.4707551630    0.4431017942    0.1286272333
C       -0.0211813942    1.0347666496    1.8767474558
C        0.7749012237    0.8040783977    3.8838496961
C        0.4205287702   -0.2058944785   -0.2609736919
C       -0.1328836844    1.0782540715    0.3649826692
N       -3.2896026157   -0.3629914397    0.3475478164
N        1.0925221492    0.8142325370    2.5041980276
N       -1.1195085199    1.2372434332    2.6988115108
N       -0.6457116075    0.8918215853    3.9843822769
N       -1.5063317845    1.3458578273   -0.1128704801
O        1.5278675739    0.7406945503    4.8332184494
H       -0.1864282898   -1.0699954442    0.0246367983
H        0.4162001130   -0.1160650635   -1.3497094845
H        1.4395462127   -0.3693821833    0.0926462030
H        0.4704164080    1.9251634100    0.0258172758
H       -1.9873896615    0.7622522900    2.4469992962
H       -0.9988141473    1.4842671303    4.7307941455
H       -1.8162685838    2.3099997472   -0.0428746455
