19   

C        0.2864808700   -1.1772538858    0.6306168389
C        2.6562824380   -0.8079235936    0.4968640253
C        0.4338001443   -1.4176524982    2.0060625282
C        2.7337795576   -1.0584788271    1.8788913691
C        1.4104712069   -0.8736013174   -0.1498429341
C        1.1656998246   -0.5942062121   -1.6246463529
C        1.7530098874   -1.5938321051    4.0526470741
N        1.6391396588   -1.3615200846    2.6046913620
N        2.2551292836   -0.6108878080   -2.4426087570
O        0.0635559963   -0.3760390830   -2.0890904880
H       -0.6991750078   -1.2198239074    0.1684643278
H        3.5573868645   -0.5464951559   -0.0498182874
H       -0.4534315760   -1.6503605134    2.5895124626
H        3.7031520625   -0.9987769939    2.3671794423
H        1.8705946245   -2.6626443556    4.2599433136
H        2.6149166909   -1.0561302971    4.4604909993
H        0.8606561392   -1.2258586834    4.5693471775
H        2.0596197074   -0.4492612397   -3.4266869085
H        3.1639239955   -0.9307596412   -2.1383470240
19   

C        0.3036069957   -1.1998505692    0.6072979876
C        2.6563408493   -0.7241993857    0.5104465775
C        0.4471482200   -1.4692143219    1.9779758907
C        2.7311087975   -1.0064313492    1.8862970033
C        1.4219075580   -0.8248216757   -0.1501957205
C        1.1976617185   -0.5066853582   -1.6174457621
C        1.7508218621   -1.6327814998    4.0358178366
N        1.6429325726   -1.3749954646    2.5917210481
N        2.2370359440   -0.7602820158   -2.4587974403
O        0.1363604114   -0.1120036023   -2.0587483863
H       -0.6729472272   -1.2669944173    0.1292853418
H        3.5460545550   -0.4054592781   -0.0260000547
H       -0.4350897940   -1.7535006684    2.5459334328
H        3.6917625458   -0.9148178056    2.3867369644
H        1.9020534853   -2.7009824085    4.2232710817
H        2.5905244472   -1.0751774740    4.4628621863
H        0.8420598629   -1.3044276327    4.5506616208
H        2.0494667740   -0.5971383397   -3.4441222870
H        3.0682925971   -1.2524629497   -2.1600099706
19   

C        0.3257686691   -1.2238159584    0.5927635433
C        2.6570588438   -0.6499708238    0.5313026499
C        0.4675511208   -1.5196518600    1.9583595082
C        2.7314914662   -0.9611416877    1.9007253660
C        1.4341119301   -0.7802619666   -0.1424254813
C        1.2309157939   -0.4273175026   -1.6034517451
C        1.7565027471   -1.6709903718    4.0265951371
N        1.6526081555   -1.3894052596    2.5866520009
N        2.1631952416   -0.8982640296   -2.4724962612
O        0.2375855347    0.1365385255   -2.0167803544
H       -0.6417080758   -1.3154115779    0.1011241050
H        3.5353962267   -0.2845396734    0.0048837919
H       -0.4073627245   -1.8523929166    2.5111211561
H        3.6832910419   -0.8416995845    2.4121098210
H        1.9393814812   -2.7372435999    4.1958095353
H        2.5749435152   -1.0957831720    4.4712532788
H        0.8338783115   -1.3800534132    4.5393369981
H        1.9744388829   -0.7264647641   -3.4560338724
H        2.9107250781   -1.5146944386   -2.1811028634
19   

C        0.3586359055   -1.2687973475    0.5748070860
C        2.6627450064   -0.5957847464    0.5502977526
C        0.4986285796   -1.5836139054    1.9366161002
C        2.7369598272   -0.9284704001    1.9143873431
C        1.4538003414   -0.7611299479   -0.1387378690
C        1.2674855389   -0.3691497741   -1.5917339724
C        1.7688560895   -1.7087808558    4.0184003779
N        1.6700096119   -1.4132180803    2.5808988668
N        2.0351645654   -1.0228903143   -2.4987149654
O        0.3891642487    0.3821243444   -1.9634376110
H       -0.5992552448   -1.3886251813    0.0714490964
H        3.5287978421   -0.1847475567    0.0366985977
H       -0.3670765133   -1.9619305820    2.4743525994
H        3.6777351922   -0.7772444228    2.4376278347
H        1.9890755200   -2.7695049540    4.1772136060
H        2.5607480475   -1.1092887382    4.4788473547
H        0.8308867384   -1.4575746203    4.5243186615
H        1.8450495657   -0.8140519454   -3.4746927832
H        2.6827301241   -1.7535149637   -2.2315427455
19   

C        0.4140868393   -1.3083822636    0.5436590505
C        2.6859760470   -0.5407017292    0.5832937616
C        0.5362476232   -1.6378489295    1.9041667945
C        2.7443381531   -0.8902712205    1.9434526958
C        1.5026591056   -0.7457761842   -0.1378624091
C        1.3479185484   -0.3091795893   -1.5821885613
C        1.7614093097   -1.7348808086    4.0148343661
N        1.6842033218   -1.4284157840    2.5782963799
N        1.9106401949   -1.1033772470   -2.5239326096
O        0.6788577372    0.6484844741   -1.9108774961
H       -0.5280684014   -1.4574557790    0.0197801443
H        3.5435903340   -0.0832923323    0.0949358822
H       -0.3250561433   -2.0579443847    2.4173858784
H        3.6658760415   -0.7057691803    2.4897492654
H        2.0334231641   -2.7841638928    4.1690232041
H        2.5080883204   -1.0992841981    4.5017442965
H        0.7988480799   -1.5389673969    4.4984958136
H        1.7566553501   -0.8298452088   -3.4901707198
H        2.4128509681   -1.9498236167   -2.2864795063
19   

C        0.8825351905   -0.0594729013    0.7027870194
C        2.5012616978   -1.8071313891    0.4445718100
C        0.8111636976   -0.3740609445    2.0711555572
C        2.3870650587   -2.0727371859    1.8193651782
C        1.7380838303   -0.7861865318   -0.1357525593
C        1.9094634904   -0.3965973490   -1.5921232880
C        1.4960115826   -1.6360000632    4.0497587110
N        1.5528313997   -1.3646744541    2.6052341444
N        1.0642500478   -0.9669575755   -2.4828358982
O        2.7663355717    0.3753862873   -1.9692610406
H        0.2986393739    0.7630055383    0.2951254195
H        3.2023419985   -2.3683310917   -0.1696582732
H        0.1503123934    0.2104156133    2.7062090943
H        3.0007355809   -2.8596112667    2.2506742726
H        0.8076224169   -2.4615722081    4.2579292562
H        2.4907217915   -1.8938651786    4.4279656535
H        1.1586085096   -0.7476259935    4.5932260895
H        1.1954544400   -0.7062823410   -3.4559435566
H        0.3487690828   -1.6261929387   -2.2022248046
19   

C        0.8746126593   -0.1262219122    0.6757125567
C        2.5759912558   -1.7989754219    0.4797874447
C        0.7899833527   -0.4227585860    2.0479236539
C        2.4470728974   -2.0493560807    1.8555270695
C        1.7751244053   -0.8284857026   -0.1353722821
C        1.9775249397   -0.4608081465   -1.5933599693
C        1.4897647308   -1.6233996673    4.0598220785
N        1.5644379869   -1.3702517065    2.6128264348
N        0.9964967806   -0.8231676166   -2.4546216147
O        3.0038688431    0.0357266378   -2.0094721495
H        0.2621719159    0.6634735642    0.2462622237
H        3.3168930029   -2.3321907785   -0.1128731306
H        0.0909842669    0.1402546311    2.6611514368
H        3.0891347024   -2.7995160889    2.3102831778
H        0.8287755288   -2.4713800173    4.2668154164
H        2.4858242881   -1.8391454080    4.4602151985
H        1.1094612186   -0.7408502271    4.5840568195
H        1.1706365965   -0.6304242091   -3.4368137452
H        0.1716671098   -1.3263406332   -2.1521371339
19   

C        0.8464008206   -0.1789808379    0.6543208252
C        2.6182137353   -1.7784328993    0.5015979127
C        0.7601213991   -0.4591639450    2.0303537447
C        2.4865682122   -2.0151418098    1.8789607392
C        1.7824719591   -0.8539114350   -0.1385412639
C        1.9917886041   -0.5166036486   -1.6026124916
C        1.4866545542   -1.6036158511    4.0662343899
N        1.5676780814   -1.3646837871    2.6171811608
N        0.9146193507   -0.6557219641   -2.4166198162
O        3.0830131955   -0.2619048341   -2.0701324038
H        0.2046706515    0.5784868904    0.2103322996
H        3.3864135150   -2.2882401854   -0.0774595973
H        0.0312990663    0.0816399108    2.6286559630
H        3.1553630018   -2.7313211709    2.3497158055
H        0.8782667656   -2.4897843568    4.2746858992
H        2.4881942298   -1.7498199820    4.4840685205
H        1.0418080067   -0.7412993622    4.5729424710
H        1.0866182054   -0.5108494297   -3.4074695956
H        0.0291494051   -1.0145702854   -2.0824902381
19   

C        0.8337299207   -0.2572101957    0.6146948343
C        2.6715085878   -1.7811289785    0.5168801906
C        0.7478923490   -0.5064896201    1.9970767203
C        2.5391489035   -1.9897450699    1.8982682176
C        1.8039498565   -0.9090017770   -0.1557662292
C        2.0105067482   -0.6317080283   -1.6332822940
C        1.5000597028   -1.5731506850    4.0658744705
N        1.5872567754   -1.3620161584    2.6128888107
N        0.8853041779   -0.5576089552   -2.3938100279
O        3.1078034005   -0.5841190857   -2.1519589860
H        0.1616478041    0.4614110995    0.1522570385
H        3.4621187335   -2.2773686744   -0.0441465119
H       -0.0089937567    0.0161487990    2.5763804314
H        3.2325805909   -2.6671541949    2.3903012540
H        0.9102903287   -2.4687029356    4.2875341148
H        2.5011438337   -1.6888158210    4.4941764017
H        1.0321239530   -0.7109668607    4.5515330749
H        1.0379313006   -0.4521993998   -3.3928975430
H       -0.0307532165   -0.7759330542   -2.0240417836
19   

C        0.8162636401   -0.3239022777    0.6050655645
C        2.7237075388   -1.7580134196    0.5582701670
C        0.7277551981   -0.5489244132    1.9917798359
C        2.5872264223   -1.9454669071    1.9418609634
C        1.8253951989   -0.9403409831   -0.1446399812
C        2.0329836365   -0.7216045589   -1.6332575127
C        1.5021533731   -1.5417989516    4.0889460762
N        1.5993400422   -1.3504641721    2.6338809770
N        0.9233674615   -0.4361053863   -2.3689174360
O        3.1117184746   -0.8484663022   -2.1779425623
H        0.1103885197    0.3508481832    0.1285509535
H        3.5390171031   -2.2356905830    0.0163572540
H       -0.0606931046   -0.0536314405    2.5527142703
H        3.3049923236   -2.5821442334    2.4530203094
H        0.9277089778   -2.4454560573    4.3180499125
H        2.5009379888   -1.6327347608    4.5283541534
H        1.0135481913   -0.6815540238    4.5573470196
H        1.0769645873   -0.3493331622   -3.3697260766
H       -0.0111398935   -0.5044683803   -1.9891149245
19   

C        0.7842931523   -0.3873911720    0.5957805507
C        2.7582101044   -1.7249425449    0.5794878412
C        0.7079623601   -0.5849835852    1.9876903667
C        2.6325043745   -1.8880449328    1.9668207028
C        1.8227128695   -0.9666135046   -0.1441015965
C        2.0156619535   -0.8104768409   -1.6451238941
C        1.5246244561   -1.4990746661    4.1045987756
N        1.6174470546   -1.3275836798    2.6467989627
N        0.9601305889   -0.3259944160   -2.3572048916
O        3.0469270265   -1.1077239132   -2.2156185655
H        0.0366229878    0.2340294991    0.1124593977
H        3.5918183699   -2.1839690824    0.0491754307
H       -0.1059947006   -0.1203086441    2.5382807775
H        3.3788732327   -2.4808463213    2.4896535773
H        0.9803896440   -2.4179241583    4.3469397560
H        2.5251311236   -1.5505503240    4.5463903018
H        1.0069148101   -0.6484562301    4.5590389401
H        1.1103947802   -0.2588174523   -3.3600607952
H        0.0395441218   -0.2024703937   -1.9600842113
19   

C        0.7330929598   -0.5094652467    0.5954289073
C        2.8006320906   -1.6905353366    0.6002610717
C        0.6804949335   -0.6719502372    1.9930510265
C        2.6974803635   -1.8231396143    1.9925297379
C        1.8080301234   -1.0241175393   -0.1405108236
C        1.9867015621   -0.9252420445   -1.6510636572
C        1.5732301877   -1.4671336321    4.1272181309
N        1.6480826060   -1.3223404314    2.6655149013
N        1.0220090917   -0.2819136544   -2.3565450078
O        2.9426426240   -1.3964463590   -2.2359246414
H       -0.0755949745    0.0201392186    0.1023208334
H        3.6606375469   -2.1092614296    0.0787429586
H       -0.1670762936   -0.2617963845    2.5361651506
H        3.4883349573   -2.3463126391    2.5242026337
H        1.1022184692   -2.4195895106    4.3923583661
H        2.5760267635   -1.4317245205    4.5653213632
H        0.9924882629   -0.6491442541    4.5649999822
H        1.1765411191   -0.2359152223   -3.3599044934
H        0.2083982230    0.1410929027   -1.9342043391
19   

C        0.6829829777   -0.5837034880    0.5767173092
C        2.8300180409   -1.6209940330    0.5906487253
C        0.6504022940   -0.7200553455    1.9776499276
C        2.7435485223   -1.7305669517    1.9862205092
C        1.7898761614   -1.0371292503   -0.1516997739
C        1.9236473073   -0.9700900334   -1.6656918770
C        1.6043627871   -1.4156451338    4.1199128107
N        1.6655296298   -1.2877729851    2.6560010923
N        1.0517816957   -0.1596717989   -2.3282856543
O        2.7670950356   -1.5885303780   -2.2849373039
H       -0.1708385652   -0.1408784841    0.0731053914
H        3.7077965896   -1.9978510997    0.0668943058
H       -0.2232803627   -0.3644846310    2.5178873430
H        3.5690321007   -2.1913066966    2.5229910235
H        1.1844657658   -2.3875647393    4.4001063717
H        2.6056791830   -1.3229086881    4.5528736786
H        0.9837096333   -0.6228330107    4.5491470437
H        1.1835680083   -0.1154122252   -3.3350063526
H        0.4319340854    0.4834069186   -1.8564219922
19   

C        0.6472606038   -0.6382504817    0.5718442822
C        2.8441936141   -1.5714385930    0.5825488075
C        0.6334755477   -0.7500176374    1.9749622460
C        2.7745240562   -1.6592223784    1.9809523941
C        1.7707157047   -1.0494969952   -0.1556935997
C        1.8566075560   -1.0280604318   -1.6719123050
C        1.6351020054   -1.3700299649    4.1185916092
N        1.6814834089   -1.2562187475    2.6529782711
N        1.1315717341   -0.0691699481   -2.3111899880
O        2.5738772574   -1.7763777060   -2.3059531078
H       -0.2313037007   -0.2561168974    0.0593298071
H        3.7285870234   -1.9234764913    0.0529399152
H       -0.2534396519   -0.4310239209    2.5164876093
H        3.6236221537   -2.0741337114    2.5182611630
H        1.2723761287   -2.3609953643    4.4118621999
H        2.6315706870   -1.2156738129    4.5450019430
H        0.9718698611   -0.6094033682    4.5422977338
H        1.2478367391   -0.0382020897   -3.3202805618
H        0.6727191700    0.6835888167   -1.8161955411
19   

C        0.6014738179   -0.6848093845    0.5733265652
C        2.8411645204   -1.5172352742    0.5641355191
C        0.6093371565   -0.7834833197    1.9771130468
C        2.7911405637   -1.5947128126    1.9644104323
C        1.7363018109   -1.0493131697   -0.1613831732
C        1.7729551764   -1.0606300802   -1.6783900612
C        1.6615423242   -1.3441872711    4.1126286453
N        1.6880565679   -1.2353332190    2.6461338984
N        1.2317293030    0.0176403587   -2.3048139555
O        2.3443929841   -1.9193542125   -2.3198394677
H       -0.2970950436   -0.3514977831    0.0601124600
H        3.7295774305   -1.8413313967    0.0239956955
H       -0.2857740843   -0.5022993443    2.5260642736
H        3.6626793057   -1.9690111601    2.4955664466
H        1.3553311418   -2.3518704080    4.4134575676
H        2.6520202975   -1.1342725060    4.5290624652
H        0.9616629835   -0.6188702726    4.5392726056
H        1.3340864183    0.0341588417   -3.3156636184
H        0.9119784835    0.8322707819   -1.7971823935
19   

C        0.5489804597   -0.7298392462    0.5887153710
C        2.8250807507   -1.4635816944    0.5507796672
C        0.5817997304   -0.8164934243    1.9925561305
C        2.7980678177   -1.5315963586    1.9526175360
C        1.6894155486   -1.0497851109   -0.1579476132
C        1.6767117763   -1.0897704077   -1.6743369146
C        1.6870509161   -1.3202927459    4.1151407274
N        1.6895212290   -1.2157572831    2.6480880722
N        1.3504569205    0.0655163354   -2.3068449263
O        2.0610255210   -2.0492282715   -2.3114991675
H       -0.3686336293   -0.4413606698    0.0813285317
H        3.7159996278   -1.7585708881   -0.0011126221
H       -0.3173301342   -0.5716831287    2.5522633860
H        3.6914645694   -1.8654990695    2.4742897682
H        1.4423099577   -2.3427311611    4.4225504746
H        2.6687063940   -1.0524846106    4.5189769456
H        0.9514449135   -0.6351868373    4.5480859793
H        1.4281455014    0.0530604923   -3.3198425376
H        1.1741674171    0.9251534379   -1.8024531186
19   

C        0.5131956429   -0.7853518027    0.5900599198
C        2.8242763811   -1.4069653816    0.5321515400
C        0.5626298419   -0.8658667838    1.9932906513
C        2.8117520339   -1.4717506974    1.9348813895
C        1.6620386824   -1.0535442097   -0.1651374088
C        1.6181017617   -1.1039379735   -1.6807218320
C        1.7080576200   -1.3132851507    4.1064231987
N        1.6944334802   -1.2092672217    2.6393822298
N        1.5313937130    0.0847768965   -2.3243078096
O        1.7616242988   -2.1320704186   -2.3095601652
H       -0.4204374350   -0.5432890292    0.0872213306
H        3.7236384067   -1.6612793090   -0.0254979563
H       -0.3428189900   -0.6638870594    2.5598772337
H        3.7240667916   -1.7606970264    2.4505919993
H        1.5006042507   -2.3433808897    4.4157875294
H        2.6833938022   -1.0125855124    4.5022202499
H        0.9532727006   -0.6533159846    4.5454099356
H        1.5682665830    0.0472373571   -3.3389062291
H        1.5092727012    0.9668249722   -1.8277945552
19   

C        0.4518254305   -0.8326955226    0.6055454010
C        2.7928895013   -1.3347611641    0.5125239031
C        0.5247563033   -0.9134288238    2.0071798411
C        2.8017746306   -1.4028908744    1.9157278836
C        1.6020626343   -1.0457351341   -0.1658178352
C        1.5232931668   -1.0813211708   -1.6804713514
C        1.7195652634   -1.3083093670    4.1025552192
N        1.6815176615   -1.2008219994    2.6361775804
N        1.6867989800    0.0963651955   -2.3278136760
O        1.3408538253   -2.1048922795   -2.3061243293
H       -0.4983951482   -0.6358581147    0.1137003153
H        3.6983795385   -1.5376665758   -0.0554987303
H       -0.3821464629   -0.7582444612    2.5860606400
H        3.7342779137   -1.6443237881    2.4196224433
H        1.5546484099   -2.3462572244    4.4113203415
H        2.6884189818   -0.9729326631    4.4861207659
H        0.9469625246   -0.6779171378    4.5539042412
H        1.6433306632    0.0604137310   -3.3421736164
H        1.8565042157    0.9642989701   -1.8347184122
19   

C        0.3931385634   -0.8818916160    0.6274668863
C        2.7578416042   -1.2603961851    0.4993882497
C        0.4893449091   -0.9623223800    2.0271307692
C        2.7881832935   -1.3316748130    1.9027355128
C        1.5418869119   -1.0388317979   -0.1599579249
C        1.4265773757   -1.0511547745   -1.6722924499
C        1.7307766715   -1.3004039058    4.1043659393
N        1.6681076919   -1.1916182547    2.6389168696
N        1.8338877066    0.0633290987   -2.3254812437
O        0.9129906318   -1.9645962572   -2.2843856559
H       -0.5711588751   -0.7309848074    0.1461441751
H        3.6668806915   -1.4086601950   -0.0792969188
H       -0.4166429197   -0.8544229986    2.6180723075
H        3.7384888389   -1.5230755922    2.3947126055
H        1.6000295894   -2.3431410269    4.4133593096
H        2.6951572923   -0.9384998307    4.4747682806
H        0.9472883271   -0.6926929624    4.5679751141
H        1.7043840589    0.0639706374   -3.3331397948
H        2.1990860775    0.8718977227   -1.8377017815
19   

C        0.3518106705   -0.9386928560    0.6377288666
C        2.7327666906   -1.2000668386    0.4873552727
C        0.4628063497   -1.0274760196    2.0353602704
C        2.7764926633   -1.2830543216    1.8901399403
C        1.5007851523   -1.0331784360   -0.1593680248
C        1.3553691648   -1.0125911170   -1.6685540578
C        1.7354944308   -1.3184354401    4.1001396635
N        1.6563158641   -1.2044004575    2.6358811506
N        1.9901232788   -0.0074403715   -2.3222986621
O        0.6068155949   -1.7563465860   -2.2689599427
H       -0.6214802706   -0.8269634438    0.1628941201
H        3.6446433717   -1.2958462387   -0.0975417279
H       -0.4429164840   -0.9674499770    2.6334800164
H        3.7384257339   -1.4308720203    2.3744835556
H        1.6406591263   -2.3662102258    4.4050566916
H        2.6910941928   -0.9278965758    4.4641380766
H        0.9374237666   -0.7376944061    4.5734406098
H        1.8199420903    0.0493760606   -3.3223535556
H        2.5101540230    0.7104832720   -1.8337248057
19   

C        0.3184063248   -0.9777770014    0.6439296675
C        2.7087761349   -1.1327337674    0.4788345565
C        0.4397177066   -1.0876241296    2.0389053353
C        2.7617275749   -1.2398201220    1.8799674810
C        1.4666209824   -1.0034574849   -0.1592368842
C        1.2932275498   -0.9452966304   -1.6647278276
C        1.7333006729   -1.3521721647    4.0936933705
N        1.6425958462   -1.2221726071    2.6314230129
N        2.1196299037   -0.0970819657   -2.3325405549
O        0.3969280345   -1.5176966970   -2.2516174113
H       -0.6613823439   -0.8960976581    0.1755131691
H        3.6228749307   -1.1800552729   -0.1079638182
H       -0.4651714588   -1.0765402070    2.6411963273
H        3.7309607506   -1.3543497462    2.3587242784
H        1.6686864539   -2.4056694334    4.3863709969
H        2.6799880892   -0.9402314337    4.4574069856
H        0.9227634412   -0.7985135092    4.5782373120
H        1.9415421635   -0.0024985918   -3.3284518450
H        2.7599017400    0.5221460278   -1.8526120220
19   

C        0.2906643052   -1.0117295798    0.6577485480
C        2.6853336016   -1.0601947061    0.4799033378
C        0.4232128516   -1.1461129393    2.0492972230
C        2.7485106743   -1.1947252130    1.8784855911
C        1.4345688903   -0.9654566919   -0.1504500218
C        1.2291305677   -0.8766067200   -1.6517648908
C        1.7359812133   -1.3905503231    4.0939154408
N        1.6332652286   -1.2398302154    2.6344259537
N        2.1941727446   -0.2254026256   -2.3577727673
O        0.2350165975   -1.2919810239   -2.2139437164
H       -0.6956215694   -0.9590865315    0.1982838013
H        3.6009158227   -1.0591843658   -0.1054748655
H       -0.4787237941   -1.1856822006    2.6548230149
H        3.7235519168   -1.2776148884    2.3519205334
H        1.7146950702   -2.4503919559    4.3693812557
H        2.6670481692   -0.9469341700    4.4607073925
H        0.9063818063   -0.8774471225    4.5907627362
H        2.0118921309   -0.1231425077   -3.3522508649
H        2.9407213607    0.2876823464   -1.9084017741
19   

C        0.2747098674   -1.0570422231    0.6535228051
C        2.6698673926   -0.9835685530    0.4862659841
C        0.4085299519   -1.2196870529    2.0417082175
C        2.7333753490   -1.1497154136    1.8816469282
C        1.4172333481   -0.9317593144   -0.1484124152
C        1.1919696050   -0.8068594927   -1.6473013411
C        1.7223704219   -1.4426897034    4.0873832566
N        1.6189899621   -1.2676793259    2.6306417991
N        2.2464915644   -0.3744029988   -2.3936322456
O        0.1318097935   -1.0584880565   -2.1865351268
H       -0.7138464582   -1.0366289000    0.1960841464
H        3.5903491420   -0.9201217021   -0.0863439339
H       -0.4928957336   -1.3164621341    2.6415474238
H        3.7091063231   -1.1943772104    2.3587587926
H        1.7219115036   -2.5074218951    4.3439977078
H        2.6439215222   -0.9875970333    4.4640007861
H        0.8822039569   -0.9543280576    4.5914601630
H        2.0601777142   -0.2727651567   -3.3874697298
H        3.0956112466   -0.0114729715   -1.9836350111
19   

C        0.2849806638   -1.1327645467    0.6470202411
C        2.6717090296   -0.8957653212    0.4869003279
C        0.4307309679   -1.3424784209    2.0274707465
C        2.7459151031   -1.1125600059    1.8750665260
C        1.4177264141   -0.9065802578   -0.1474163771
C        1.1587426288   -0.6842814193   -1.6329146483
C        1.7550129374   -1.5422316144    4.0680794600
N        1.6420390169   -1.3343177039    2.6163367276
N        2.2353888489   -0.4622999018   -2.4305900043
O        0.0461932287   -0.6904713637   -2.1238596874
H       -0.7064594888   -1.1455745064    0.1955197792
H        3.5848725243   -0.7208180483   -0.0728961482
H       -0.4625816535   -1.5155824121    2.6222781332
H        3.7214278808   -1.1005239145    2.3545149505
H        1.8058336056   -2.6118267282    4.2975600304
H        2.6537219433   -1.0529753783    4.4569172182
H        0.8930135081   -1.1069778123    4.5840055296
H        2.0243755724   -0.3197496879   -3.4143809668
H        3.1880468628   -0.4644404057   -2.0961837948
