48

C      4.98418   -4.38399    0.03235
C      6.74158   -3.53814    1.45664
C      4.46409   -2.03229    2.83246
C      3.66949   -1.70404    0.58097
C      5.85424   -5.34312   -0.48541
C      7.62057   -4.49134    0.94435
C      3.56565   -1.06932    3.29259
C      2.78211   -0.72562    1.02247
C      7.61006   -2.92836   -2.19677
C      9.65651   -2.47247   -0.97526
C      0.82378   -3.12018    2.53542
C     -0.46465   -2.23265    0.67775
C      7.07080   -1.72772   -1.73465
C      9.12379   -1.26234   -0.52552
C      1.23980   -4.19022    1.74131
C     -0.05394   -3.30292   -0.11976
C      5.41998   -3.45034    0.98982
C      4.51184   -2.38734    1.47488
C      7.17772   -5.36525   -0.04660
C      2.71364   -0.43903    2.38629
C      8.88818   -3.30887   -1.78583
C     -0.00843   -2.14175    1.99303
C      7.82323   -0.90959   -0.89015
C      0.80347   -4.26570    0.41738
O      8.12658   -6.23074   -0.62177
O      1.78342    0.45400    2.94489
O      9.48007   -4.53758   -2.12240
O     -0.36704   -1.05827    2.80994
S      8.48985   -5.89616   -2.23406
S      0.22293    0.44665    2.31939
Cl     7.11044    0.56655   -0.26243
Cl     1.34697   -5.59556   -0.59771
H      3.95254   -4.36747   -0.30556
H      7.10626   -2.81247    2.17787
H      5.09799   -2.55097    3.54647
H      3.71436   -1.93623   -0.47912
H      5.52020   -6.04775   -1.24137
H      8.65929   -4.52595    1.25659
H      3.48659   -0.82728    4.34815
H      2.12313   -0.22297    0.32293
H      7.01703   -3.58347   -2.82464
H     10.65029   -2.79107   -0.67608
H      1.17196   -3.01833    3.55760
H     -1.11891   -1.46529    0.27526
H      6.06465   -1.43693   -2.01798
H      9.70434   -0.61432    0.12328
H      1.91191   -4.94256    2.14066
H     -0.39403   -3.38686   -1.14701
