25

C      4.69076    1.09322   -5.79642
C      3.93525    0.42658   -4.87210
C      5.88921   -0.53842   -4.45584
C      1.67582    1.55071   -5.39791
C     -0.47883    2.48841   -5.67206
C      6.74252   -3.44043   -5.61348
C      2.46926    0.56438   -4.56586
N      4.62826   -0.51226   -4.12068
N      6.81818   -1.34372   -3.77976
O      2.08123    2.22383   -6.32604
O      8.60364   -1.55783   -5.57731
O      8.49709   -3.20969   -3.61935
O      0.39569    1.58606   -4.96003
S      6.35130    0.57531   -5.72266
S      7.85392   -2.39445   -4.64547
H      4.36299    1.83001   -6.51425
H     -1.45112    2.38883   -5.19039
H     -0.53915    2.20711   -6.72584
H     -0.11201    3.51423   -5.59317
H      7.37573   -4.09267   -6.21743
H      6.12737   -4.02438   -4.92814
H      6.13316   -2.80163   -6.25390
H      1.98287   -0.41358   -4.65861
H      2.34295    0.83871   -3.51241
H      6.40540   -1.80694   -2.97055
