22

C      2.02551   -0.72122   -0.34432
C      1.20972    0.08673    0.43829
C      2.31499   -0.75978    2.41627
C      3.15898   -1.56558    1.62913
C      2.99681   -1.56361    0.22834
C      1.35523    0.05294    1.82844
C      4.21372   -2.33198    2.35086
C      4.25640   -3.57473   -0.31035
N      5.44423   -1.99431    2.14752
N      3.80825   -3.36750    3.17017
O      6.29827   -2.84335    2.92624
O      3.70310   -2.30074   -0.67321
Br     0.23635    1.15450    2.93106
H      1.92106   -0.73081   -1.42498
H      0.46354    0.72469   -0.02416
H      2.45098   -0.74745    3.49359
H      4.31188   -4.14183   -1.24181
H      3.60994   -4.09969    0.39940
H      5.25316   -3.46008    0.11859
H      2.84627   -3.34484    3.48165
H      4.48907   -3.67143    3.85759
H      7.16991   -2.44626    2.77416
