27

C     -1.24178   -6.92020   -3.78106
C      1.90957    0.76663   -3.15514
C      3.51575    1.14833   -1.38869
C      1.45360    2.07935   -3.02874
C      3.06111    2.45846   -1.24316
C     -0.57306   -5.69101   -3.50339
C      2.94015    0.27600   -2.33019
C     -1.29039   -4.52543   -3.13993
C     -0.60042   -3.34684   -2.88225
C      2.02765    2.91301   -2.06656
C      0.81714   -3.35208   -2.98852
C      0.82927   -5.56230   -3.57771
C      3.48548   -1.09338   -2.45155
N     -1.79239   -7.92216   -4.00670
N      1.49145   -4.45328   -3.33589
N      2.87850   -2.20953   -2.67080
N      1.51604   -2.19311   -2.76244
Cl    -3.01299   -4.59369   -3.02297
Cl    -1.42980   -1.87682   -2.43405
Cl     1.78129   -6.95391   -4.02488
Br     1.40322    4.71179   -1.88984
H      1.48844    0.14103   -3.93647
H      4.32616    0.79407   -0.75630
H      0.66821    2.45124   -3.67855
H      3.50705    3.11816   -0.50602
H      4.56087   -1.20497   -2.31898
H      0.99226   -1.38749   -2.42712
