42

C      5.66168   10.22824   -6.24229
C      6.30118    9.07917   -5.71668
C      4.40461    1.01162    2.90457
C      3.04935    1.36105    2.90143
C      4.62311   10.80705   -5.54488
C      5.90356    8.54263   -4.50802
C      3.10783   10.86010   -3.58966
C      5.34473    1.76340    2.18836
C      2.69133   10.32920   -2.39214
C      2.60644    2.47663    2.17688
C      4.19061   10.27505   -4.29994
C      4.84906    9.12721   -3.74981
C      4.41262    8.58758   -2.48543
C      4.90015    2.87450    1.46719
C      3.33605    9.19519   -1.83733
C      3.53654    3.22687    1.46348
C      4.98621    4.75974    0.09132
C      5.16684    7.48171   -1.88408
C      7.12254    3.58183    0.55636
C      1.79851    7.88326   -0.62150
N      5.55136    5.65233   -0.65680
N      4.63213    6.56998   -1.14500
N      5.68154    3.73676    0.70104
O      2.91785    8.77841   -0.59601
S      3.24514    4.66794    0.47944
H      5.98424   10.64164   -7.19420
H      7.10725    8.60965   -6.27469
H      4.73735    0.14542    3.46953
H      2.33373    0.76718    3.46248
H      4.11320   11.68186   -5.94211
H      6.39476    7.64512   -4.14822
H      2.61631   11.73758   -4.00334
H      6.39411    1.48621    2.19584
H      1.87895   10.77813   -1.82733
H      1.55512    2.75100    2.17277
H      6.24410    7.44374   -2.06636
H      7.35540    2.61552    0.09656
H      7.60959    3.64199    1.53535
H      7.48853    4.38472   -0.08075
H      1.60464    7.60852    0.41682
H      2.03991    6.98509   -1.19679
H      0.91361    8.37696   -1.04516
