20

C      0.31938   -0.48158    1.08624
C      1.36146    0.20855    1.70003
C     -0.19540   -1.61461    1.72668
C      1.84375   -0.23420    2.93776
C      1.25455   -1.38297    3.51241
C      1.69264   -1.94938    4.84155
C      1.45210   -3.42768    5.05876
C      2.60228    1.47944    4.39098
N      0.26921   -2.06118    2.89450
O      2.19837   -1.24246    5.70294
O      2.92132    0.40294    3.49063
H     -0.07821   -0.16348    0.12640
H      1.82442    1.07641    1.23797
H     -1.00245   -2.18936    1.27562
H      1.91326   -4.01377    4.25721
H      0.38043   -3.64205    5.02074
H      1.86475   -3.71583    6.02652
H      3.55923    1.89445    4.71108
H      2.05575    1.10034    5.25748
H      2.02028    2.25222    3.87250
