49

C     -1.84501    1.13549    7.11087
C     -0.62060   -0.73058    6.18079
C      0.02032   -1.78454    1.06270
C      1.72189   -3.34701    4.98499
C      1.18849   -3.58530    2.47576
C      1.26605   -1.91102    5.23185
C     -1.03050    0.02896   -0.19278
C     -2.48862   -1.68412    0.80732
C     -1.85035   -0.06930   -1.48726
C     -3.27260   -1.73490   -0.51534
C     -0.97628   -3.05462    5.43360
C     -0.13814   -3.05274    1.92093
C      0.86337   -4.04688    3.91781
C     -0.63482   -3.68575    4.09001
C     -2.82130    2.11086    7.69061
C     -4.09322    0.56148   -0.72805
N     -0.62281    1.42270    6.78853
N      0.08919    0.37440    6.25809
N     -0.12284   -1.90778    5.71931
N     -1.11830   -1.23324    0.55068
N     -3.24044   -0.48851   -1.28176
O      1.14145   -1.31594    0.84684
O     -0.94002   -2.73226    3.06809
S     -2.27557   -0.55286    6.78626
H      2.77156   -3.33773    4.67481
H      1.67639   -3.90391    5.92865
H      1.58015   -4.39803    1.85976
H      1.92708   -2.78262    2.46455
H      1.89168   -1.42405    5.98339
H      1.33775   -1.30898    4.31731
H      0.02042    0.22223   -0.40592
H     -1.40146    0.84324    0.44450
H     -2.96490   -0.99638    1.51840
H     -2.48423   -2.66480    1.27774
H     -1.84200    0.89625   -2.00360
H     -1.37108   -0.80219   -2.14831
H     -2.84312   -2.52686   -1.14268
H     -4.31523   -2.00246   -0.31212
H     -2.01983   -2.73222    5.40391
H     -0.89191   -3.82037    6.21827
H     -0.64572   -3.83270    1.33074
H      0.98997   -5.12912    4.01278
H     -1.26422   -4.57902    3.95588
H     -3.69382    2.23963    7.04090
H     -3.17982    1.78507    8.67299
H     -2.31977    3.07465    7.80078
H     -4.07633    1.42644   -1.39891
H     -3.81253    0.91294    0.27946
H     -5.12451    0.19682   -0.67898
