44

C      1.33634    1.30419   -3.26800
C      0.83278    1.16830   -0.88902
C      0.61081    0.73133   -2.17717
C      0.17743    0.59301    0.23097
C     -0.76461   -0.39126    0.00668
C     -0.34386   -0.33947   -2.44900
C      3.78593    2.60551    0.41075
C      0.45052    1.12994    1.60883
C      5.71569    0.45534    0.02894
C      5.42271    0.94422    1.44597
C      3.70131    2.17664    2.90427
C      5.65912    1.62338   -0.94778
C      2.17895    2.01449    3.11612
C      2.90136    0.50627    1.38785
C      4.02679    1.56659    1.51871
C     -1.59803   -1.05133    1.06630
C      4.25396    3.44563   -1.83545
N      1.98061    1.78402   -4.11300
N     -0.98113   -0.80362   -1.27749
N      4.48196    2.47818   -0.76003
N      1.74945    1.13425    2.01852
O     -0.62123   -0.83162   -3.53794
O      2.90525    3.46270    0.55967
O     -0.45836    1.58147    2.31253
H      1.52005    1.99181   -0.71843
H      6.70689   -0.00532   -0.03132
H      4.98969   -0.31162   -0.26315
H      5.49593    0.12242    2.16776
H      6.17039    1.69189    1.74050
H      4.00141    3.22390    2.96217
H      4.25634    1.62100    3.66716
H      6.56371    2.24162   -0.84245
H      5.64315    1.25786   -1.97996
H      1.94244    1.57081    4.08891
H      1.63932    2.95776    3.02945
H      2.69336    0.19868    0.36538
H      3.19768   -0.39238    1.95039
H     -2.62647   -0.67701    1.01340
H     -1.22196   -0.82407    2.06184
H     -1.62138   -2.13670    0.92101
H      5.14100    4.07804   -1.96835
H      3.40513    4.07447   -1.57562
H      4.04404    2.92103   -2.77182
H     -1.66295   -1.53692   -1.45452
