49

C     -6.20311    5.75162   -5.22245
C     -5.33246    3.88840   -3.94977
C     -3.14062   -0.34710   -0.20541
C     -5.32282    0.31180   -2.86205
C     -3.10135   -0.99948   -2.67891
C     -5.95828    1.56211   -3.47813
C     -3.83163   -1.59025    1.79192
C     -2.37547   -2.72674    0.19802
C     -4.81080   -2.75903    1.70551
C     -3.37607   -3.88391    0.13901
C     -3.88945    2.57102   -2.46288
C     -2.33427   -0.32012   -1.52276
C     -3.87158    0.16133   -3.33791
C     -3.02579    1.40840   -2.96847
C     -6.94581    6.72692   -6.08146
C     -5.00686   -5.14851    1.38908
N     -5.09377    6.01364   -4.60371
N     -4.58627    4.96997   -3.87199
N     -5.05960    2.70775   -3.33726
N     -3.05736   -1.48428    0.55394
N     -4.10295   -4.00413    1.39983
O     -3.83990    0.61176    0.12789
O     -2.08821    1.00684   -1.95299
S     -6.77505    4.09558   -4.95746
H     -5.35792    0.37164   -1.77184
H     -5.91404   -0.56056   -3.16052
H     -2.38282   -1.42776   -3.38408
H     -3.76346   -1.80226   -2.34270
H     -6.14715    1.38633   -4.54669
H     -6.92908    1.76982   -3.00531
H     -4.35646   -0.64834    1.94469
H     -3.13902   -1.75472    2.62675
H     -1.61706   -2.94761    0.96016
H     -1.87182   -2.63589   -0.76212
H     -5.32196   -2.87305    2.66738
H     -5.58002   -2.53126    0.94173
H     -4.06479   -3.72180   -0.71494
H     -2.83261   -4.81699   -0.04664
H     -4.19173    2.37093   -1.43174
H     -3.33599    3.50733   -2.48747
H     -1.35317   -0.77426   -1.36034
H     -3.87917    0.03484   -4.42545
H     -2.43857    1.74299   -3.83051
H     -7.03726    6.36692   -7.11204
H     -7.95589    6.91105   -5.69961
H     -6.39464    7.66970   -6.08600
H     -5.49732   -5.23862    2.36330
H     -4.43860   -6.06672    1.20915
H     -5.79234   -5.07088    0.61373
