26

C      1.74520   -0.90558   -0.59603
C     -0.73063   -6.24777    1.14907
C     -2.09807   -6.25967    1.44320
C     -2.20909   -3.87601    0.88653
C     -0.83195   -3.86673    0.58192
C     -0.11581   -5.07715    0.70898
C     -2.80182   -5.06169    1.31970
C     -0.64980   -1.46687   -0.09073
C      0.28466    0.81548    0.38774
C     -0.04032    0.02591   -2.01065
C      0.36539   -0.39173   -0.57614
N      2.82597   -1.33667   -0.60922
N     -0.13952   -2.71180    0.17014
O     -1.82857   -1.15431    0.02099
Cl     1.59516   -5.12535    0.30486
I     -5.06259   -5.20819    1.10963
H     -0.14194   -7.15389    1.25159
H     -2.58068   -7.17419    1.76972
H     -2.77150   -2.96006    0.77211
H     -0.74529    1.17601    0.41085
H      0.58304    0.53341    1.40086
H      0.94219    1.61606    0.03949
H     -1.07101    0.38549   -1.99200
H      0.02890   -0.81721   -2.70308
H      0.61551    0.82460   -2.36641
H      0.85821   -2.84066    0.02713
