36

C      4.23248   -3.05133    6.29822
C      3.99915   -3.13024    4.21783
C      2.03929   -3.00728    1.63865
C      3.82811   -1.56439    1.33765
C     -0.24025   -0.17767    0.60312
C     -0.45177   -1.20386   -0.52898
C      4.89255   -4.61773    8.22242
C      6.00929   -3.63207    8.05775
C      0.50393   -0.98407    1.67559
C      0.76549   -2.16738   -0.44860
C      4.58316   -3.21414    7.71012
C      1.52787   -1.80028    0.85249
C      4.18055   -3.57554    2.79408
N      4.66739   -3.72650    5.26373
N      3.19776   -2.15062    4.55774
N      2.77565   -1.06456    0.61050
N      3.38292   -2.79317    1.87712
O      1.38898   -3.97130    2.00289
O      4.94389   -1.09747    1.48771
O      3.34894   -2.08990    5.96394
H      0.38139    0.65802    0.25557
H     -1.17620    0.25239    0.97119
H     -1.37787   -1.75948   -0.35114
H     -0.54329   -0.73055   -1.51050
H      4.81515   -5.42000    7.49631
H      4.54588   -4.85472    9.22339
H      6.44374   -3.17906    8.94337
H      6.68535   -3.76886    7.22044
H      0.98912   -0.38896    2.45354
H     -0.18092   -1.68759    2.16095
H      0.44146   -3.20951   -0.39746
H      1.43992   -2.06870   -1.30214
H      4.07693   -2.52783    8.37982
H      5.23280   -3.47558    2.51817
H      3.89176   -4.62595    2.70649
H      2.78727   -0.07812    0.38502
