16

C      1.94823   -0.89081   -0.05084
C      0.83702   -0.35826    0.59458
C      1.74426   -1.16001    2.70772
C      2.97212   -1.55287    0.64931
C      2.85848   -1.71488    2.05199
C      0.76203   -0.49245    1.98329
C      4.14634   -2.12185   -0.07682
O      4.79499   -3.05963    0.33582
O      4.48458   -1.53773   -1.26301
S      4.09206   -2.59726    2.97708
Br    -0.73999    0.23966    2.91401
H      1.99051   -0.82235   -1.13526
H      0.05038    0.13875    0.03811
H      1.63611   -1.25862    3.78273
H      4.01463   -0.69414   -1.36953
H      3.61669   -2.19194    4.17670
