31

C     -6.31592    2.01659    0.53090
C     -1.77679    0.67775    0.62064
C     -0.70702    1.54506    0.82555
C     -1.69039    2.38316    2.91471
C     -4.71440    0.33890    2.72454
C     -5.42783    3.02232    1.00668
C     -2.77602    1.51109    2.71708
C     -4.01263    1.29499    3.42927
C     -2.80456    0.67014    1.56937
C     -0.68054    2.37823    1.96329
C     -5.34195    3.49767    2.28785
C     -3.78528    4.38807    1.02575
C     -4.50484    2.02491    4.61292
C     -2.61349    5.25435    0.73882
N     -7.02028    1.16220    0.16723
N     -4.43116    3.59971    0.21756
N     -5.44230    2.90479    4.64826
N     -3.98877   -0.04474    1.61672
N     -6.08285    3.26445    3.44491
O     -4.29032    4.39273    2.30342
Br     0.80547    3.58210    2.17782
H     -1.80984    0.04365   -0.26110
H      0.10553    1.58679    0.10839
H     -1.65417    3.04937    3.77053
H     -5.70069   -0.06380    2.90884
H     -4.06370    1.82042    5.58893
H     -2.87768    6.31181    0.84372
H     -1.79435    5.03792    1.42887
H     -2.28002    5.06685   -0.28201
H     -4.34249   -0.64699    0.88568
H     -6.72693    4.01904    3.66004
