20

C      6.07785   -1.41009   -2.88409
C      2.36894   -1.02898   -0.67202
C      1.30999   -0.38985   -0.02433
C      2.43290   -0.70423    2.10951
C      3.46194   -1.51868    0.04841
C      3.46420   -1.34925    1.43821
C      1.35374   -0.22834    1.36208
C      6.58163   -2.10705   -1.69260
C      5.79969   -1.72812   -0.43371
N      5.67142   -0.84127   -3.81293
O      4.45360   -2.18796   -0.62402
F      4.50815   -1.83503    2.15875
Cl     0.03605    0.58281    2.18696
H      2.36832   -1.15675   -1.75023
H      0.46559   -0.01269   -0.59132
H      2.47601   -0.59480    3.18785
H      6.50988   -3.18633   -1.85844
H      7.63949   -1.85920   -1.55623
H      5.81062   -0.64366   -0.28305
H      6.24847   -2.21330    0.43805
