25

C     -2.18820   -1.48317   -2.24559
C     -2.98777   -1.89980   -1.18015
C     -3.82117    0.36477   -0.95039
C     -2.17592   -0.15270   -2.68363
C     -3.02971    0.74524   -2.02608
C     -3.79331   -0.96548   -0.52941
C      0.69402    0.47626   -0.80941
C      1.28633   -0.40084   -1.91137
C      0.45680    1.52392   -2.86232
C     -0.68557    1.38198   -3.86664
O     -0.05521    1.45791   -1.53673
O      1.45044    0.51922   -2.99689
O     -1.38772    0.13348   -3.76561
F     -3.10111    2.03779   -2.43452
Cl    -4.79212   -1.46044    0.82683
H     -1.55460   -2.19322   -2.76829
H     -2.97971   -2.93603   -0.85880
H     -4.45123    1.10458   -0.46819
H      0.00512   -0.05845   -0.15092
H      1.47397    0.96700   -0.21389
H      2.26765   -0.81130   -1.66313
H      0.60678   -1.21159   -2.19424
H      0.94731    2.49386   -3.03464
H     -0.26176    1.37655   -4.87302
H     -1.36132    2.23306   -3.76613
