28   

C       -0.9864296566    0.3276400366    0.5217259957
C       -2.0409326905   -0.5895527603    0.6208316483
C       -1.7878432793    1.4789603259    2.5031846078
C       -3.9210815156    0.3917739006    3.5397769427
C       -2.8339441423    0.5554033311    2.5899834582
C       -0.8416021643    1.3739985355    1.4579445937
C       -2.9511018127   -0.4560456352    1.6616712933
C       -4.6570454247   -0.7109892841    3.1426344409
C       -5.7902527125   -1.3931287484    3.7610273493
C        1.2176046108    2.2844756216    2.5629086805
C       -0.2032468969    3.7696737948    1.0968234476
C        0.3123455989    2.3470648310    1.3292565052
N       -4.0551447434   -1.2375641615    1.9771127171
O       -6.1773432009   -2.5078616311    3.4361591648
O       -6.3724309258   -0.7090120405    4.7738581740
H       -0.2745520895    0.2218143543   -0.2887729742
H       -2.1447434124   -1.3924850426   -0.0980146894
H       -1.7103709702    2.2651782035    3.2438487407
H       -4.1130632658    0.9999327736    4.4155260938
H        0.6734033899    2.5783882225    3.4654247914
H        2.0726790921    2.9562433488    2.4385679436
H        1.5962977673    1.2663581522    2.6984297869
H       -0.8001168931    4.1145143720    1.9465123102
H       -0.8254260454    3.7997450636    0.1966669455
H        0.6363186211    4.4580734097    0.9587482580
H        0.9162816283    2.0657635427    0.4599788949
H       -4.3670043692   -2.0780275311    1.4945217644
H       -7.0858082236   -1.2860258941    5.0903295890
28   

C       -0.7191877679    0.1396845782    0.7973111817
C       -1.7288333273   -0.8220887572    0.9347588588
C       -1.8743695295    1.5911755027    2.3631895917
C       -4.0728014776    0.5522982142    3.3072384975
C       -2.8724263412    0.6206338319    2.4923673942
C       -0.7737934712    1.3587289495    1.5067744777
C       -2.7943230454   -0.5599111316    1.7866872393
C       -4.6811426212   -0.6639054536    3.0512502774
C       -5.8041141019   -1.3321243718    3.7081728754
C        1.0248091195    2.6519743217    2.6881135284
C       -0.1997044024    3.6673086679    0.7277083497
C        0.3382447958    2.3751302829    1.3471044923
N       -3.8866231776   -1.3556477496    2.1081910149
O       -5.9340257219   -2.5466154377    3.7764410529
O       -6.6703807218   -0.4929076894    4.3225504250
H        0.1148334589   -0.0670290923    0.1365865232
H       -1.6780516597   -1.7580891830    0.3929819547
H       -1.9509688359    2.5107382565    2.9299747977
H       -4.4115951372    1.2917207499    4.0227857365
H        0.3239160331    3.0859010561    3.4074565960
H        1.8561628788    3.3502646879    2.5496915798
H        1.4227510552    1.7211811229    3.1047631812
H       -0.9495219159    4.1301468145    1.3763746988
H       -0.6598162325    3.4537181029   -0.2423244548
H        0.6158688103    4.3805502052    0.5729956552
H        1.0935894809    1.9681347454    0.6664268854
H       -4.0548704283   -2.3101680556    1.7973819581
H       -7.3325024523   -1.0709992505    4.7340789462
28   

C       -0.7446458680    0.1688252953    0.7513407058
C       -1.7605331369   -0.7880618070    0.8772793428
C       -1.8844599055    1.6035332394    2.3435004881
C       -4.0776410552    0.5582784488    3.2905572827
C       -2.8882228872    0.6374900188    2.4614873843
C       -0.7881762846    1.3768530999    1.4801664372
C       -2.8211278177   -0.5322219054    1.7373449613
C       -4.6936213610   -0.6508097569    3.0216005853
C       -5.7700641126   -1.3410629969    3.7408592179
C        1.0184160416    2.6416298312    2.6820884383
C       -0.1936588326    3.6894131992    0.7311625849
C        0.3327195837    2.3859259971    1.3362170821
N       -3.9123137220   -1.3301808097    2.0580618734
O       -5.7641513957   -2.5341678982    4.0049147043
O       -6.7434693267   -0.5210682574    4.2005144183
H        0.0865236480   -0.0338986586    0.0858020127
H       -1.7166010275   -1.7167833937    0.3225591943
H       -1.9516064039    2.5134675053    2.9267742806
H       -4.3950396040    1.2790295941    4.0342875392
H        0.3197543638    3.0733812082    3.4048874678
H        1.8559377643    3.3344463099    2.5536115767
H        1.4076456403    1.7029061175    3.0890783436
H       -0.9420685334    4.1495729887    1.3833672391
H       -0.6524067431    3.4909860667   -0.2427168357
H        0.6276360431    4.3984026615    0.5876068685
H        1.0867080329    1.9810408490    0.6527835721
H       -4.0698398786   -2.2867580144    1.7493076230
H       -7.3531891064   -1.1000013977    4.6852118947
28   

C       -0.7784968392    0.1823194924    0.7134515248
C       -1.8011980843   -0.7682064333    0.8332096607
C       -1.8947881669    1.6027744981    2.3345649656
C       -4.0827710294    0.5567259811    3.2907124850
C       -2.9049554615    0.6427395526    2.4465602748
C       -0.8067716020    1.3799736174    1.4599462462
C       -2.8531929143   -0.5166581534    1.7051716615
C       -4.7088442116   -0.6439031980    3.0121550669
C       -5.7521873969   -1.3441299480    3.7827636174
C        1.0149040781    2.6165043572    2.6703082145
C       -0.1953974912    3.6952334829    0.7353318420
C        0.3223817840    2.3810086292    1.3240830675
N       -3.9450189089   -1.3135261981    2.0273442289
O       -5.6274556102   -2.4655034200    4.2472446862
O       -6.8406109401   -0.5867185979    4.0502724750
H        0.0466351873   -0.0177766569    0.0396556527
H       -1.7677720087   -1.6897636577    0.2659838831
H       -1.9495242205    2.5038931009    2.9326224771
H       -4.3785129253    1.2627177076    4.0570339914
H        0.3226877258    3.0466528405    3.4002163458
H        1.8578900357    3.3034881753    2.5462343228
H        1.3975569582    1.6702839168    3.0660208717
H       -0.9382930955    4.1536812291    1.3950186561
H       -0.6585854469    3.5112938365   -0.2392825067
H        0.6310206203    4.3993353556    0.5972550256
H        1.0708484807    1.9774667474    0.6338212076
H       -4.1026160013   -2.2667126058    1.7098884257
H       -7.4119141369   -1.1492035184    4.5970286607
28   

C       -0.7908513572    0.1986808241    0.6994328385
C       -1.8157927546   -0.7490481074    0.8221678983
C       -1.8781954308    1.6038989329    2.3531328424
C       -4.0580945481    0.5560275521    3.3260618367
C       -2.8907026026    0.6466179796    2.4679685735
C       -0.8037323168    1.3874771218    1.4603313414
C       -2.8543674666   -0.5038138560    1.7119130301
C       -4.6915295561   -0.6365995712    3.0422404410
C       -5.7436563493   -1.3296083416    3.8250237614
C        1.0375592673    2.6073545064    2.6586757178
C       -0.1944526634    3.7071937318    0.7494599046
C        0.3269243953    2.3861506184    1.3194880132
N       -3.9462218532   -1.2990292435    2.0382020766
O       -5.5533278557   -2.3220947437    4.5044438432
O       -6.9415042342   -0.7022716757    3.8115669978
H        0.0237976516    0.0035378173    0.0115681533
H       -1.7941938107   -1.6635859917    0.2431658090
H       -1.9209522628    2.4982042255    2.9622777253
H       -4.3407742103    1.2558953682    4.1027144450
H        0.3563115049    3.0331267974    3.4013468634
H        1.8810639052    3.2928184243    2.5297964033
H        1.4222685796    1.6564309660    3.0408777057
H       -0.9276616070    4.1615045803    1.4227140294
H       -0.6704836840    3.5335518237   -0.2208512291
H        0.6321457506    4.4102852669    0.6073736168
H        1.0652143634    1.9867475884    0.6159836134
H       -4.1178121267   -2.2412814486    1.6977929652
H       -7.5114843220   -1.2319620324    4.3913107535
28   

C       -0.7409149267    0.1692352948    0.8096629000
C       -1.7429445269   -0.7940616879    0.9852912562
C       -1.7922545060    1.5820405107    2.4807077224
C       -3.9463953113    0.5322985146    3.5148979507
C       -2.7843276290    0.6106045721    2.6464399051
C       -0.7479934763    1.3700433501    1.5513264311
C       -2.7529423083   -0.5516273718    1.9078596397
C       -4.5678453863   -0.6674623433    3.2654296198
C       -5.7607136132   -1.2733499419    3.9280683613
C        1.1326187287    2.6252954433    2.6392256255
C       -0.2263200600    3.7030394948    0.8045555387
C        0.3512398478    2.3915454142    1.3430213667
N       -3.8345563891   -1.3468128409    2.2642342790
O       -5.7207123935   -2.0011817551    4.8993623941
O       -6.9343356182   -0.9422547715    3.3438259012
H        0.0486759119   -0.0208059028    0.0917924521
H       -1.7300742912   -1.7143330672    0.4151901226
H       -1.8323442208    2.4887945245    3.0713636400
H       -4.2577465866    1.2717181909    4.2423084366
H        0.4853202624    3.0345605101    3.4205891349
H        1.9528341996    3.3285137778    2.4642130811
H        1.5580450872    1.6817040258    2.9955534158
H       -0.9255039973    4.1466022883    1.5197863852
H       -0.7562331623    3.5203445240   -0.1357282186
H        0.5781381368    4.4200111030    0.6131511574
H        1.0545507444    2.0063919744    0.5970047650
H       -4.0457820489   -2.2676696280    1.8904842896
H       -7.6149758526   -1.3888958756    3.8716879115
28   

C       -0.7091470149    0.0989696589    0.9149746849
C       -1.6958812037   -0.8700011091    1.1400877227
C       -1.7279251923    1.5385120283    2.5831313205
C       -3.8724605688    0.5156319156    3.6605215502
C       -2.7064834773    0.5626553651    2.7957474712
C       -0.7081081829    1.3161698607    1.6295455239
C       -2.6829376488   -0.6164531970    2.0843062094
C       -4.4942707223   -0.6959417128    3.4531348401
C       -5.8127149268   -1.1594621454    3.9537379226
C        1.2090986063    2.5936731120    2.6136301470
C       -0.2484030374    3.6544951130    0.8461499588
C        0.3667006018    2.3490498984    1.3590352662
N       -3.7653004222   -1.3995182927    2.4650246895
O       -6.0629183745   -1.5071615922    5.0908484677
O       -6.7349386307   -1.2824825073    2.9707020088
H        0.0591569731   -0.0972739958    0.1759965190
H       -1.6940394356   -1.7993863552    0.5848288930
H       -1.7656604039    2.4611985276    3.1487711059
H       -4.2172290617    1.3032086001    4.3192798967
H        0.5959950441    2.9960773637    3.4256171694
H        2.0114721551    3.3058381766    2.3971888632
H        1.6620959363    1.6552377868    2.9489150140
H       -0.9117672979    4.0976550946    1.5948988727
H       -0.8256540498    3.4644406089   -0.0643417337
H        0.5397136226    4.3762363822    0.6097660065
H        1.0343228015    1.9680952222    0.5788639462
H       -4.0319235528   -2.2903767057    2.0555691702
H       -7.5319523107   -1.6131122169    3.4147401037
28   

C       -0.7026109546    0.1240986060    0.9331263847
C       -1.6959443361   -0.8326641682    1.1813542355
C       -1.6877715691    1.5932652370    2.5953814327
C       -3.8328451403    0.6090382497    3.7041335985
C       -2.6733351623    0.6298784794    2.8303060434
C       -0.6811928417    1.3495805977    1.6332217049
C       -2.6694498959   -0.5585559843    2.1339331158
C       -4.4701540256   -0.6024412540    3.5213735214
C       -5.7970469325   -1.0163893167    4.0153400257
C        1.2703360435    2.6043373882    2.5743325001
C       -0.2087935539    3.6824379381    0.8357598818
C        0.3995752765    2.3693145877    1.3375246886
N       -3.7574191306   -1.3242932370    2.5344256149
O       -6.1430820753   -1.0740225870    5.1799780831
O       -6.6002779723   -1.4865226447    3.0304710486
H        0.0548177205   -0.0881348700    0.1873805160
H       -1.7100328197   -1.7683084114    0.6368828295
H       -1.7105676489    2.5230719710    3.1500834711
H       -4.1683919418    1.4122803946    4.3488615205
H        0.6783457834    3.0136866251    3.3984690909
H        2.0763457823    3.3071038500    2.3413366047
H        1.7190835478    1.6607117178    2.9006483909
H       -0.8491787859    4.1364108821    1.5978918736
H       -0.8084070581    3.4990820152   -0.0615405599
H        0.5838619308    4.3928438237    0.5809023876
H        1.0457772017    1.9791263380    0.5440062225
H       -4.0564497586   -2.2052880652    2.1250279965
H       -7.4164843823   -1.7541976533    3.4825304616
28   

C       -0.7185412180    0.1453897879    0.9037232078
C       -1.7220266158   -0.8037958801    1.1403016261
C       -1.6883404107    1.6049376238    2.5833892063
C       -3.8410039543    0.6292100642    3.6840221314
C       -2.6838808812    0.6492303837    2.8068729048
C       -0.6843134636    1.3621709716    1.6184157979
C       -2.6927695147   -0.5310185450    2.0960599361
C       -4.4920259588   -0.5742330348    3.4858596909
C       -5.8049862226   -0.9857437453    3.9977311689
C        1.2761928217    2.5902932486    2.5775805614
C       -0.1866722131    3.6965201170    0.8430127416
C        0.4076510986    2.3736495007    1.3357579490
N       -3.7876599266   -1.2907525188    2.4894524727
O       -6.2134288495   -0.8290928908    5.1335999578
O       -6.5195888674   -1.7063913036    3.0979968457
H        0.0369961580   -0.0660213933    0.1558357294
H       -1.7456072547   -1.7329487370    0.5851402010
H       -1.7011330849    2.5279569359    3.1496616350
H       -4.1645067573    1.4240961074    4.3453087958
H        0.6854246475    2.9990390621    3.4028876536
H        2.0898715483    3.2869518945    2.3530277496
H        1.7145371165    1.6397939673    2.8980195725
H       -0.8260061505    4.1495613924    1.6066016005
H       -0.7843841838    3.5263559094   -0.0581448009
H        0.6133933557    4.4018573644    0.5974156733
H        1.0531136646    1.9839588841    0.5414011011
H       -4.0987252674   -2.1664715193    2.0766516422
H       -7.3379577688   -1.9412149690    3.5645940186
28   

C       -0.7403445203    0.1702170516    0.8629799534
C       -1.7560272997   -0.7710035496    1.0783436048
C       -1.7069700867    1.6167235519    2.5558132924
C       -3.8732862278    0.6455670734    3.6338154792
C       -2.7145166524    0.6690206803    2.7584781304
C       -0.6981531569    1.3762702807    1.5952442956
C       -2.7310558601   -0.5010317749    2.0304762683
C       -4.5359977470   -0.5478606947    3.4122954464
C       -5.8264074028   -0.9786581975    3.9521444807
C        1.2661743452    2.5700637477    2.5905804698
C       -0.1656484949    3.7135187855    0.8542511519
C        0.4085126447    2.3782531572    1.3370398471
N       -3.8337509594   -1.2567741632    2.4094773919
O       -6.2991767223   -0.6495571103    5.0249264598
O       -6.4499823397   -1.8964098097    3.1706973230
H        0.0191183070   -0.0394100137    0.1185776653
H       -1.7847899907   -1.6925699340    0.5109118036
H       -1.7130856970    2.5310413995    3.1361599416
H       -4.1854095282    1.4266873709    4.3168187725
H        0.6715114684    2.9760153660    3.4144629640
H        2.0902138934    3.2597716134    2.3829662136
H        1.6901130895    1.6108397307    2.9043432379
H       -0.8083554580    4.1641376700    1.6164518326
H       -0.7552780279    3.5609672372   -0.0553404666
H        0.6448023761    4.4128135166    0.6260711898
H        1.0581486019    1.9907769722    0.5450077379
H       -4.1430902479   -2.1354238497    2.0008018608
H       -7.2667912921   -2.1120014011    3.6494197373
28   

C       -0.7424719560    0.2164515293    0.8118368399
C       -1.7697015591   -0.7160276798    1.0097452616
C       -1.6911119374    1.6429873008    2.5316586551
C       -3.8616785239    0.6727133667    3.6019861071
C       -2.7097390514    0.7037897817    2.7175971858
C       -0.6855635143    1.4081559622    1.5662880059
C       -2.7413320002   -0.4518963408    1.9669426284
C       -4.5400916984   -0.5068694271    3.3555514157
C       -5.7976079818   -0.9650496595    3.9413779777
C        1.2833788202    2.5726328057    2.5907563067
C       -0.1223273883    3.7447707686    0.8522113489
C        0.4346224585    2.4000102641    1.3281672915
N       -3.8492577206   -1.2042862832    2.3372975211
O       -6.3343521811   -0.5044209199    4.9328328499
O       -6.3297476416   -2.0337484776    3.2951011350
H        0.0149206171    0.0109388417    0.0641883232
H       -1.8089702242   -1.6271688454    0.4263289707
H       -1.6851012314    2.5456400300    3.1300024072
H       -4.1531783839    1.4343715855    4.3155371717
H        0.6865201612    2.9792776464    3.4126785917
H        2.1168217578    3.2546293863    2.3955362474
H        1.6939349352    1.6064320480    2.9008723821
H       -0.7685495420    4.1938253959    1.6123988580
H       -0.7044423572    3.6058819010   -0.0643868070
H        0.6966402109    4.4386373662    0.6383692730
H        1.0875567329    2.0126967443    0.5387751309
H       -4.1548099682   -2.0879516067    1.9361806147
H       -7.1404125715   -2.2396218515    3.7884557310
28   

C       -0.7819192147    0.2344676505    0.7772701713
C       -1.8239803332   -0.6845613586    0.9601144897
C       -1.7179913392    1.6568754753    2.5073606675
C       -3.9008748495    0.7017331899    3.5659915564
C       -2.7512417794    0.7309735733    2.6785079027
C       -0.7109337327    1.4170243069    1.5448248283
C       -2.7965063171   -0.4160178186    1.9151794613
C       -4.5963085683   -0.4641253137    3.3025064698
C       -5.8215452716   -0.9477713425    3.9326791651
C        1.2683499180    2.5402065658    2.5962838203
C       -0.1047017662    3.7504415053    0.8577556730
C        0.4270732204    2.3927632887    1.3253658324
N       -3.9126727203   -1.1597563389    2.2783025042
O       -6.4421167964   -0.3834280649    4.8158495214
O       -6.2440795690   -2.1388345875    3.4365057683
H       -0.0231858655    0.0249660962    0.0320932633
H       -1.8728189319   -1.5897165880    0.3681659616
H       -1.7004001822    2.5519054085    3.1168278730
H       -4.1728552794    1.4494343718    4.3017117039
H        0.6716408899    2.9489504182    3.4172683244
H        2.1141393695    3.2104903419    2.4139888179
H        1.6609887282    1.5648012399    2.9007553765
H       -0.7502607780    4.2022145570    1.6169035367
H       -0.6811955738    3.6292563271   -0.0648794202
H        0.7267776973    4.4333424134    0.6573572194
H        1.0802635260    2.0023521758    0.5377148266
H       -4.2107457119   -2.0525585026    1.8918954344
H       -7.0526760170   -2.3389843779    3.9356192758
28   

C       -0.7994854496    0.2664476509    0.7399876834
C       -1.8510713692   -0.6446468113    0.9072003220
C       -1.7286484387    1.6759069033    2.4843468361
C       -3.9174267811    0.7216335631    3.5317246204
C       -2.7712552408    0.7577626050    2.6400641553
C       -0.7199111984    1.4382648564    1.5229992877
C       -2.8246554281   -0.3787882171    1.8619312795
C       -4.6235517380   -0.4336223820    3.2503700097
C       -5.8116275527   -0.9527619262    3.9237487212
C        1.2641649185    2.5281354017    2.6014419018
C       -0.0832866065    3.7718177389    0.8664824428
C        0.4304719771    2.4036076183    1.3229361980
N       -3.9442379599   -1.1209386876    2.2176006132
O       -6.5321557814   -0.3307616817    4.6834922571
O       -6.1005631364   -2.2349953355    3.5841053653
H       -0.0392454633    0.0584259064   -0.0040683530
H       -1.9052767590   -1.5426823099    0.3049637943
H       -1.7035774684    2.5618343251    3.1067110680
H       -4.1728504742    1.4516283730    4.2907482378
H        0.6663114047    2.9349631834    3.4225367740
H        2.1187044980    3.1907440053    2.4323278886
H        1.6437589512    1.5452641613    2.8983778752
H       -0.7297905463    4.2218837480    1.6258462621
H       -0.6540746701    3.6668008701   -0.0616588838
H        0.7568701216    4.4479480206    0.6798238827
H        1.0852754027    2.0146178388    0.5359200738
H       -4.2287016375   -2.0231249133    1.8430851059
H       -6.9065122887   -2.4450018764    4.0834083516
28   

C       -0.8611248762    0.2760546859    0.7108655336
C       -1.9256356631   -0.6223068378    0.8646580058
C       -1.7672084717    1.6694183356    2.4800408088
C       -3.9605413343    0.7219725115    3.5239744369
C       -2.8222697212    0.7634207019    2.6227905042
C       -0.7635475928    1.4334930113    1.5129695775
C       -2.8938756751   -0.3582946388    1.8253506391
C       -4.6860709524   -0.4163111872    3.2232415021
C       -5.8386814728   -0.9680592267    3.9368512601
C        1.2287628748    2.4897062904    2.6133013868
C       -0.0916872225    3.7614806486    0.8779493492
C        0.4016750905    2.3840784303    1.3285996932
N       -4.0195375074   -1.0938769157    2.1753910997
O       -6.6632245739   -0.3301812168    4.5660720401
O       -5.9841476630   -2.3054902267    3.7582690664
H       -0.1045270824    0.0689435860   -0.0371497232
H       -1.9928753934   -1.5100988133    0.2487075491
H       -1.7275865510    2.5435878415    3.1180644916
H       -4.1913960386    1.4317551776    4.3094539697
H        0.6317481694    2.9003496243    3.4330715087
H        2.0934183067    3.1414080547    2.4534084099
H        1.5929726453    1.5000625336    2.9069807017
H       -0.7389520730    4.2135317863    1.6355130412
H       -0.6563377648    3.6698209123   -0.0553517569
H        0.7579926464    4.4286978961    0.7027157872
H        1.0568985627    1.9916713602    0.5436293266
H       -4.2971006804   -2.0004200187    1.8067855393
H       -6.7867187306   -2.5335801252    4.2549444642
28   

C       -0.8958453576    0.3007628414    0.6803701792
C       -1.9754823076   -0.5815819830    0.8209287964
C       -1.7866148103    1.6909620068    2.4596804574
C       -3.9938153491    0.7631082391    3.4915516086
C       -2.8566070518    0.8006021668    2.5892886570
C       -0.7827541971    1.4483335373    1.4944987769
C       -2.9432825276   -0.3113781241    1.7803949514
C       -4.7373286877   -0.3591525146    3.1767644894
C       -5.8680229722   -0.9306431795    3.9184847065
C        1.2198026464    2.4620426379    2.6171828152
C       -0.0673851685    3.7691347998    0.8830850280
C        0.3998141408    2.3802877946    1.3260801954
N       -4.0786611820   -1.0355705732    2.1227369129
O       -6.8039965676   -0.3109462785    4.3891141453
O       -5.8585728679   -2.2868307735    3.9318161190
H       -0.1391221443    0.0883040536   -0.0660200387
H       -2.0537516470   -1.4627393841    0.1968127400
H       -1.7346279219    2.5571291071    3.1076344423
H       -4.2058425316    1.4601540322    4.2934054408
H        0.6244139719    2.8766211897    3.4361442347
H        2.0964703668    3.1001341478    2.4681307970
H        1.5652288432    1.4641761668    2.9057015372
H       -0.7126228735    4.2256569522    1.6397018228
H       -0.6267191250    3.6941708172   -0.0548927445
H        0.7944435254    4.4235413230    0.7192755729
H        1.0538889248    1.9830025075    0.5426045006
H       -4.3522575251   -1.9441814022    1.7571943352
H       -6.6627444119   -2.5341125995    4.4163185172
28   

C       -0.9225906444    0.3168746298    0.6560065571
C       -2.0107858519   -0.5566354423    0.7845897373
C       -1.8016126223    1.6928548552    2.4521370052
C       -4.0162755048    0.7696781885    3.4731167595
C       -2.8801342825    0.8110487883    2.5698190071
C       -0.7992603603    1.4528989391    1.4846419244
C       -2.9766697426   -0.2892345113    1.7467848119
C       -4.7699200906   -0.3396920674    3.1436219910
C       -5.8940696780   -0.9315941741    3.8932503350
C        1.2088817376    2.4380249361    2.6240784700
C       -0.0601149986    3.7716121073    0.8966662769
C        0.3928467632    2.3749207354    1.3293655530
N       -4.1176835810   -1.0084241870    2.0803669755
O       -6.9383429236   -0.3764327842    4.1773857444
O       -5.7256699133   -2.2544815432    4.1336314501
H       -0.1671007229    0.1063570358   -0.0921882836
H       -2.0965636014   -1.4293498336    0.1496963962
H       -1.7415015824    2.5498860704    3.1114081809
H       -4.2164480394    1.4540900096    4.2885768269
H        0.6146706822    2.8515150282    3.4444249031
H        2.0921284064    3.0689216284    2.4834501010
H        1.5437843468    1.4345416131    2.9054412641
H       -0.7046047934    4.2270065743    1.6546041044
H       -0.6161131507    3.7097422603   -0.0442504515
H        0.8081284535    4.4197683296    0.7421793191
H        1.0462966188    1.9783673625    0.5449905438
H       -4.3916552832   -1.9114037869    1.7025509025
H       -6.5352060753   -2.5280228945    4.5940952178
28   

C       -0.9246695593    0.2880018971    0.6435276742
C       -1.9992269669   -0.6038852448    0.7579269069
C       -1.8371799183    1.6343518061    2.4456395029
C       -4.0482813151    0.6699306682    3.4391282235
C       -2.9026439598    0.7347720978    2.5487004996
C       -0.8247628205    1.4184647145    1.4827303037
C       -2.9750520912   -0.3601545505    1.7162982525
C       -4.7772240244   -0.4476294908    3.0966810807
C       -5.9288305161   -1.0575531594    3.8076997447
C        1.1706260976    2.4090844873    2.6359569871
C       -0.1198623474    3.7598950932    0.9378424420
C        0.3529028047    2.3610662850    1.3418878968
N       -4.1080070061   -1.0988042947    2.0332441098
O       -7.0651516508   -0.6275459136    3.8273465415
O       -5.6286853400   -2.2533765108    4.3661884445
H       -0.1615111313    0.0962435388   -0.1019314465
H       -2.0672009516   -1.4720228826    0.1146623257
H       -1.7950302236    2.4869549320    3.1119832186
H       -4.2708929208    1.3503256126    4.2519084490
H        0.5715621924    2.7958669372    3.4657697997
H        2.0440950086    3.0559089133    2.5071706507
H        1.5209812044    1.4049410725    2.8953442913
H       -0.7673376898    4.1924911237    1.7064676113
H       -0.6782296525    3.7090229444   -0.0023285607
H        0.7394046058    4.4221235798    0.7931257939
H        1.0097693910    1.9895112148    0.5481711191
H       -4.3739740133   -1.9902543141    1.6246503637
H       -6.4573167615   -2.5562436839    4.7703642714
28   

C       -0.8217966078    0.2400547395    0.7080046379
C       -1.8624541109   -0.6893301980    0.8349892486
C       -1.7635746558    1.5568308343    2.5171149243
C       -3.9601724292    0.5444208695    3.4978403269
C       -2.7970238419    0.6217173566    2.6307388430
C       -0.7540433569    1.3752451002    1.5439514542
C       -2.8371043713   -0.4778497290    1.8021165321
C       -4.6512399243   -0.5942563146    3.1606607866
C       -5.9479945077   -1.1089150896    3.6923408626
C        1.2361652889    2.4194875679    2.6491031409
C       -0.1534843386    3.7538737087    1.0173711722
C        0.3808893862    2.3654032897    1.3805932367
N       -3.9578253718   -1.2386889328    2.1092312041
O       -7.0409112536   -0.8423953158    3.2349022983
O       -5.8117750035   -1.9273971275    4.7599940240
H       -0.0626378408    0.0766684569   -0.0482296241
H       -1.9100867428   -1.5565462339    0.1886551086
H       -1.7494538792    2.4160543849    3.1760686466
H       -4.2459138780    1.2614175127    4.2574946879
H        0.6479630993    2.7657305551    3.5042609493
H        2.0800049926    3.1018829443    2.5073001541
H        1.6318845531    1.4244340845    2.8762452278
H       -0.7882445993    4.1521742191    1.8145277728
H       -0.7414929985    3.6996488383    0.0956187543
H        0.6772421652    4.4478584777    0.8555766886
H        1.0243826758    2.0326871016    0.5591636846
H       -4.2438561303   -2.0939242796    1.6412125957
H       -6.7168097160   -2.1770589972    5.0048997716
28   

C       -0.7439234080    0.1572906565    0.7589773551
C       -1.7460368072   -0.8104566962    0.9106104400
C       -1.6912253180    1.4398053851    2.5891287221
C       -3.8513081735    0.3746548659    3.5871694686
C       -2.6873650469    0.4681742713    2.7247161125
C       -0.6992242280    1.2956451381    1.5923560499
C       -2.7061649804   -0.6339605955    1.8992593394
C       -4.5177212593   -0.7890634660    3.2618941724
C       -5.8931500848   -1.1982705473    3.6370293352
C        1.2926301034    2.4020263827    2.6248757880
C       -0.2159163694    3.7073336276    1.0779221932
C        0.3858886978    2.3342691154    1.3939612881
N       -3.8084705861   -1.4199670173    2.2124591695
O       -6.8444208643   -1.1888765178    2.8768579809
O       -6.0403179184   -1.4929529167    4.9485459558
H        0.0002010194    0.0239570423   -0.0178061421
H       -1.7804613813   -1.6758979577    0.2610599529
H       -1.6985577341    2.3030946104    3.2428454813
H       -4.1830514400    1.1176669084    4.3018662840
H        0.7278028431    2.7086573834    3.5104334127
H        2.1011785725    3.1209405856    2.4599426560
H        1.7374178234    1.4202232968    2.8158922037
H       -0.8267152184    4.0713626548    1.9093960234
H       -0.8436981385    3.6449510205    0.1833084779
H        0.5803556635    4.4342321658    0.8894013509
H        1.0041582325    2.0401090429    0.5391361994
H       -4.1146491240   -2.2441511023    1.7024237931
H       -6.9828562985   -1.6956405584    5.0585055699
28   

C       -0.7579440262    0.1641634437    0.7396927143
C       -1.7583590024   -0.8059129987    0.8876148533
C       -1.6846076112    1.4183052873    2.5998622529
C       -3.8344114143    0.3388104427    3.6042226102
C       -2.6790885267    0.4445112114    2.7316990137
C       -0.7040780330    1.2897786186    1.5897034106
C       -2.7072959659   -0.6447522135    1.8895296713
C       -4.5059452877   -0.8219427994    3.2684075845
C       -5.8724523689   -1.2385256555    3.6315096434
C        1.2965761094    2.3858080143    2.6170229872
C       -0.2290757350    3.7081779550    1.1016536936
C        0.3779030060    2.3322025937    1.3942896018
N       -3.8073521992   -1.4343781574    2.2013710301
O       -6.7562650720   -1.4747885331    2.8241463212
O       -6.1182758639   -1.2205543598    4.9616023295
H       -0.0227059987    0.0429146131   -0.0474578342
H       -1.8004709359   -1.6612148097    0.2251833227
H       -1.6849391104    2.2717168333    3.2664747301
H       -4.1605198348    1.0714980297    4.3322050378
H        0.7401534495    2.6806549985    3.5118491847
H        2.1025571933    3.1078361888    2.4531285567
H        1.7444325341    1.4023058334    2.7913733494
H       -0.8324666152    4.0604147895    1.9435597554
H       -0.8653629216    3.6561722627    0.2123961853
H        0.5641613994    4.4388131594    0.9148022501
H        0.9882076263    2.0498668000    0.5298101869
H       -4.1307776228   -2.2420562844    1.6748433257
H       -7.0537204998   -1.4634449223    5.0491606057
28   

C       -0.7797370324    0.1994912533    0.7074132558
C       -1.7853600031   -0.7663949132    0.8463625262
C       -1.6867332565    1.4299935331    2.5930848818
C       -3.8314042601    0.3422325033    3.6013901004
C       -2.6862612400    0.4602419229    2.7164789260
C       -0.7133576876    1.3111150692    1.5747651525
C       -2.7266031523   -0.6152356362    1.8569269067
C       -4.5104849702   -0.8114995654    3.2529426883
C       -5.8466392577   -1.2737979431    3.6447136256
C        1.2973671607    2.3808103857    2.6116573468
C       -0.2233622041    3.7313706652    1.1161787311
C        0.3755532816    2.3482472868    1.3904105959
N       -3.8258810033   -1.4060706467    2.1674948331
O       -6.6656075215   -1.7429806067    2.8685574269
O       -6.1574055840   -1.0353080066    4.9399891252
H       -0.0496283960    0.0854099955   -0.0855611190
H       -1.8363544142   -1.6118496102    0.1719930328
H       -1.6763811702    2.2719574026    3.2740305953
H       -4.1416062801    1.0567199295    4.3541457817
H        0.7452196731    2.6687854560    3.5113453087
H        2.1079431664    3.0991961002    2.4545328881
H        1.7388968781    1.3922631207    2.7731808857
H       -0.8231937849    4.0764325986    1.9635926280
H       -0.8615298625    3.6942862034    0.2275227193
H        0.5740170288    4.4594075273    0.9370355349
H        0.9822700573    2.0725580992    0.5212718600
H       -4.1575875845   -2.2098126372    1.6391452570
H       -7.0704180411   -1.3480517084    5.0422292179
28   

C       -0.8191426469    0.2272811878    0.6715770425
C       -1.8334248858   -0.7304146062    0.8032378024
C       -1.7038808303    1.4415350379    2.5784255477
C       -3.8450890314    0.3524985424    3.5947048168
C       -2.7118437914    0.4796947397    2.6951710990
C       -0.7369683356    1.3263350762    1.5534597146
C       -2.7672363525   -0.5837415999    1.8212117022
C       -4.5345213537   -0.7925578969    3.2365307664
C       -5.8312240936   -1.3082785185    3.6743937770
C        1.2859686248    2.3634042108    2.6014526324
C       -0.2198970587    3.7442839134    1.1185282051
C        0.3639791646    2.3524595616    1.3797398785
N       -3.8663935359   -1.3734401370    2.1341191799
O       -6.5694137211   -1.9889497970    2.9756171731
O       -6.2046966303   -0.9014979854    4.9101971454
H       -0.0935735302    0.1157012394   -0.1259055001
H       -1.8951565478   -1.5677097825    0.1196269808
H       -1.6799574199    2.2729170486    3.2719241030
H       -4.1330552383    1.0473617196    4.3743042495
H        0.7373072490    2.6497579822    3.5037749763
H        2.1048200781    3.0737587542    2.4508275336
H        1.7161422765    1.3684657204    2.7542120519
H       -0.8168992915    4.0870784186    1.9688683371
H       -0.8576480970    3.7224104406    0.2290756257
H        0.5853062940    4.4655153762    0.9470875724
H        0.9680724002    2.0781561435    0.5083375883
H       -4.1998191673   -2.1830230887    1.6150611123
H       -7.0835721214   -1.2893475041    5.0484048732
28   

C       -0.8908742536    0.2300985358    0.6208639527
C       -1.9188708199   -0.7134174343    0.7474842892
C       -1.7422720145    1.4321054187    2.5507068853
C       -3.8808115058    0.3506523709    3.5824137867
C       -2.7634874919    0.4838181938    2.6633755993
C       -0.7848734647    1.3155523033    1.5169109402
C       -2.8420921684   -0.5664235751    1.7749212586
C       -4.5873763992   -0.7815025797    3.2157750104
C       -5.8371037687   -1.3473621823    3.7156515751
C        1.2532110579    2.3147246559    2.5758928498
C       -0.2276556615    3.7250715192    1.0953547149
C        0.3339326529    2.3235393635    1.3518062207
N       -3.9432581571   -1.3506568745    2.0936540397
O       -6.4818163694   -2.2064048139    3.1287967693
O       -6.2681303885   -0.8125051394    4.8822372973
H       -0.1720635123    0.1169870098   -0.1825007323
H       -1.9972032292   -1.5420416282    0.0550518948
H       -1.6982887412    2.2519858184    3.2568095989
H       -4.1368770306    1.0229421921    4.3924191570
H        0.7078635675    2.6074811298    3.4781429621
H        2.0842826139    3.0116605764    2.4295163749
H        1.6663329569    1.3122236931    2.7263192628
H       -0.8229340194    4.0720466337    1.9452360584
H       -0.8622523877    3.7169764582    0.2034205145
H        0.5889702210    4.4348955823    0.9305524276
H        0.9361845012    2.0432376807    0.4810377819
H       -4.2759743583   -2.1706012644    1.5901482611
H       -7.1027084197   -1.2687496092    5.0754404317
28   

C       -0.9242980329    0.2957630731    0.5687671439
C       -1.9643003739   -0.6367168302    0.6774076771
C       -1.7570470946    1.4679612419    2.5249651489
C       -3.8931746733    0.3776671001    3.5531632264
C       -2.7894558757    0.5299500893    2.6205540790
C       -0.8026223388    1.3604745882    1.4874099141
C       -2.8834675186   -0.4997280466    1.7098120601
C       -4.6110752842   -0.7411827637    3.1681267914
C       -5.8023309394   -1.3745190379    3.7238753191
C        1.2434415924    2.3144845741    2.5756826660
C       -0.2071453567    3.7656575140    1.1045748285
C        0.3328211589    2.3532170470    1.3453708402
N       -3.9849729610   -1.2852652491    2.0236563022
O       -6.3227331952   -2.3789757096    3.2558742072
O       -6.3065837603   -0.7606171301    4.8201214001
H       -0.2068648276    0.1888042837   -0.2366680468
H       -2.0524080865   -1.4517030630   -0.0298828206
H       -1.6990275287    2.2699955808    3.2502942586
H       -4.1200567209    1.0162631272    4.3983812653
H        0.6968253066    2.6040320934    3.4781786772
H        2.0859930671    3.0005028041    2.4440079055
H        1.6404525478    1.3040191770    2.7159390352
H       -0.8047042175    4.1081941458    1.9546794896
H       -0.8345244962    3.7787628123    0.2076183035
H        0.6204688010    4.4663502779    0.9564576309
H        0.9375650852    2.0760032270    0.4753416431
H       -4.3057214806   -2.1159645232    1.5298940313
H       -7.0822978335   -1.2878550990    5.0697343641
