16   

C        0.5578302641    0.9217769848    1.7671878055
C        0.2999320646    0.9475766240    3.1179790815
C       -0.2713102056    0.1768761644    0.9599198275
C       -4.2981810291   -1.9722890341    4.4692391916
C       -4.3705631598   -2.5570180990    3.2477378152
C       -1.4934568340   -0.4679937987    2.7986909337
C       -2.6556103790   -1.2100371894    3.3143732217
N       -0.7177241937    0.2666107737    3.6279124385
N       -1.2902884055   -0.5056209028    1.4705701510
N       -3.2196027328   -1.1199490757    4.4892672797
O       -3.3490133399   -2.0857643198    2.4960998896
H        1.3873708838    1.4758415774    1.3517349985
H        0.9331504293    1.5303797406    3.7772527257
H       -0.0926557173    0.1458597390   -0.1088202058
H       -4.9804554064   -2.1466753811    5.2929823198
H       -5.1159134159   -3.2753311280    2.9287373729
16   

C        0.5285787733    0.9644680189    1.7673326001
C        0.3213263799    0.9243750957    3.1264742160
C       -0.3353740740    0.2648479249    0.9560406204
C       -4.3713057195   -1.8818308303    4.4141038153
C       -4.3305374353   -2.6012791565    3.2651637745
C       -1.4777479449   -0.4832503314    2.8063988359
C       -2.6427222414   -1.2214117697    3.3261236023
N       -0.6781316991    0.2196183294    3.6402422484
N       -1.3356500983   -0.4417875513    1.4708379040
N       -3.3131256816   -1.0040693353    4.4248001171
O       -3.2564701792   -2.1910619679    2.5518775082
H        1.3435669339    1.5373484824    1.3486208250
H        0.9796923222    1.4744577789    3.7892151743
H       -0.2005716752    0.2907652706   -0.1192449812
H       -5.1185864918   -1.9795195269    5.1928790905
H       -5.0348901375   -3.3691145718    2.9691946516
16   

C        0.4961506912    0.9987790185    1.7785820274
C        0.3417100936    0.8894991184    3.1410160025
C       -0.4085554856    0.3528977868    0.9670303660
C       -4.4508798843   -1.8052833366    4.3465301436
C       -4.2951686940   -2.6496529167    3.2965869691
C       -1.4752862876   -0.4932138506    2.8191821012
C       -2.6448301174   -1.2267187641    3.3449546727
N       -0.6438840435    0.1666056364    3.6567220393
N       -1.3944189507   -0.3722256736    1.4839204559
N       -3.4176458492   -0.8981300261    4.3419975164
O       -3.1723736716   -2.2895261106    2.6329229325
H        1.2999900835    1.5859355832    1.3581023314
H        1.0306088239    1.3995122732    3.8047613002
H       -0.3185923671    0.4376289005   -0.1099140228
H       -5.2608547806   -1.8364022723    5.0658610678
H       -4.9545974914   -3.4678532881    3.0339408196
16   

C        0.4799318666    1.0296757411    1.7850901339
C        0.3756660592    0.8408278614    3.1437693462
C       -0.4726933021    0.4568863019    0.9731635694
C       -4.5304600412   -1.7420609109    4.2354925518
C       -4.2504064749   -2.6979905656    3.3147678432
C       -1.4813653195   -0.4822925105    2.8107191904
C       -2.6595605159   -1.2108311084    3.3375966994
N       -0.6068976701    0.1098250655    3.6543300896
N       -1.4549736009   -0.2768829486    1.4846615471
N       -3.5330299148   -0.7959078995    4.2082981269
O       -3.0844782565   -2.3688585303    2.7120468381
H        1.2812445650    1.6231343088    1.3686528570
H        1.1021222220    1.2940139342    3.8086976665
H       -0.4239043241    0.6073421496   -0.0992487654
H       -5.4014838174   -1.7233432985    4.8800360998
H       -4.8545415905   -3.5706316786    3.0984337866
16   

C        0.4983395064    1.0232817073    1.8046557647
C        0.4377446324    0.7358800640    3.1489928209
C       -0.5131855508    0.5608053814    0.9930273722
C       -4.5992991166   -1.7099081106    4.1229706373
C       -4.1760852719   -2.7674760830    3.3856333743
C       -1.4997784989   -0.4566916257    2.7973529361
C       -2.6907725131   -1.1803801207    3.3168223428
N       -0.5614572133    0.0176659263    3.6458891442
N       -1.5121980661   -0.1604925895    1.4896705408
N       -3.6616811886   -0.7073330203    4.0382544482
O       -2.9797062844   -2.4453802447    2.8412017053
H        1.3128915485    1.6064998232    1.3995698904
H        1.2132445752    1.0994214714    3.8135880103
H       -0.4969160847    0.7885764179   -0.0666663709
H       -5.5270721140   -1.6614223638    4.6809742891
H       -4.7034717883   -3.7044995488    3.2546994387
16   

C        0.5760456723    0.8917381184    1.7899416980
C        0.5589544479    0.4424742538    3.0907717156
C       -0.5235604218    0.6429676286    0.9989428082
C       -4.6304028737   -1.7132992536    4.0879622072
C       -4.0137284552   -2.8530855027    3.6827168883
C       -1.5489509433   -0.4156586591    2.7548189642
C       -2.7533230178   -1.1393395868    3.2498830875
N       -0.4919374266   -0.2109447055    3.5706210245
N       -1.5764881397   -0.0104606281    1.4779384327
N       -3.8145575981   -0.6419060840    3.8064434467
O       -2.8171411817   -2.5148833067    3.1479903166
H        1.4313276718    1.4247689843    1.3998967949
H        1.4126045837    0.6222799872    3.7343710825
H       -0.5320737912    0.9840644823   -0.0299835500
H       -5.6059217064   -1.6575462586    4.5567453120
H       -4.4098098535   -3.8573434477    3.7717071001
16   

C        0.6225988772    0.7866490580    1.7413703205
C        0.6394708263    0.1774760353    2.9746560836
C       -0.5371323089    0.7271864410    1.0021953141
C       -4.6526236877   -1.7062830796    4.0416476720
C       -3.8875022011   -2.8251667601    3.9837265721
C       -1.5753462498   -0.4000753966    2.7110917457
C       -2.7829038375   -1.1348424342    3.1739509294
N       -0.4408650135   -0.4327440001    3.4456743603
N       -1.6187545650    0.1188600123    1.4763408526
N       -3.9230281567   -0.6454708796    3.5578152902
O       -2.6858965922   -2.4826610490    3.4643541153
H        1.5004746766    1.2872715565    1.3586924347
H        1.5443924764    0.1928929722    3.5714110548
H       -0.5699173564    1.1807942028    0.0181903065
H       -5.6690584181   -1.6562810296    4.4142709497
H       -4.1853035718   -3.8178177035    4.2987543449
16   

C        0.6183216032    0.8025750239    1.7319291004
C        0.6666563783    0.0910547444    2.9079749462
C       -0.5712740136    0.8356714781    1.0405217882
C       -4.6942604085   -1.7041191796    3.9220553726
C       -3.8685720186   -2.7649631467    4.1019058703
C       -1.5766016481   -0.3981200293    2.6974939077
C       -2.7800939182   -1.1407983584    3.1415150940
N       -0.4119593178   -0.5267272363    3.3729859124
N       -1.6504791918    0.2192979022    1.5091575262
N       -3.9783566284   -0.6785839134    3.3504301465
O       -2.6423616544   -2.4216908384    3.6445521699
H        1.4947434882    1.3097742625    1.3546351890
H        1.5953113829    0.0307717754    3.4640317499
H       -0.6299987239    1.3696389265    0.0989687525
H       -5.7431786702   -1.6685512174    4.1922061186
H       -4.1417495566   -3.7186787560    4.5367396533
16   

C        0.6017021627    0.8357275279    1.7360267927
C        0.6827727816    0.0469199089    2.8599187658
C       -0.6114408841    0.9289024552    1.0924876000
C       -4.7242595820   -1.7380022943    3.7921290255
C       -3.8720353815   -2.7229899564    4.1705486548
C       -1.5707774573   -0.4111713810    2.6943552372
C       -2.7686437239   -1.1575242146    3.1312680206
N       -0.3859806710   -0.5901816968    3.3217447095
N       -1.6808212062    0.2929535143    1.5568374322
N       -4.0049188901   -0.7459769222    3.1683711019
O       -2.6241470275   -2.3664061661    3.7878195938
H        1.4705497445    1.3580496076    1.3618530063
H        1.6296371294   -0.0589893009    3.3770971276
H       -0.6971399329    1.5274380362    0.1927662798
H       -5.7947882132   -1.7312756053    3.9606348494
H       -4.1421783050   -3.6345001218    4.6896448163
16   

C        0.5810044480    0.8766133097    1.7514336313
C        0.6906143698    0.0252865711    2.8264846632
C       -0.6512436476    1.0165125134    1.1538426350
C       -4.7422873989   -1.7905949995    3.6678280143
C       -3.8841728687   -2.6836239543    4.2213931201
C       -1.5667023552   -0.4218526282    2.6951361807
C       -2.7608623401   -1.1667580728    3.1327682215
N       -0.3676533915   -0.6320009598    3.2843245155
N       -1.7105248848    0.3603973664    1.6127078023
N       -4.0153890222   -0.8292402137    3.0061071347
O       -2.6234164879   -2.3000307507    3.9138019320
H        1.4419749269    1.4141857674    1.3806536707
H        1.6518578179   -0.1136184169    3.3081225406
H       -0.7605809174    1.6696970719    0.2956572417
H       -5.8229957845   -1.8265788588    3.7402367238
H       -4.1594035326   -3.5514709680    4.8082387536
16   

C        0.5609069351    0.9259006175    1.7826228480
C        0.6916993538    0.0208130792    2.8105487152
C       -0.6860570572    1.1075938278    1.2279939181
C       -4.7477555635   -1.8537957140    3.5601093524
C       -3.8986217305   -2.6386467197    4.2698458021
C       -1.5674453144   -0.4204457477    2.7012357553
C       -2.7603092496   -1.1609466298    3.1439190763
N       -0.3588032432   -0.6538408387    3.2610711944
N       -1.7378423245    0.4339711890    1.6783088960
N       -4.0140596502   -0.9205851970    2.8664543822
O       -2.6358134435   -2.2141644581    4.0317575102
H        1.4161624583    1.4761857426    1.4172931957
H        1.6636141315   -0.1464921673    3.2607289654
H       -0.8134103376    1.8092954541    0.4116102013
H       -5.8274440991   -1.9460533497    3.5449709288
H       -4.1815593562   -3.4613046325    4.9152024896
16   

C        0.5490482996    0.9715121802    1.8276894042
C        0.6933542074    0.0150038949    2.8061467102
C       -0.7084557015    1.1943939856    1.3131706685
C       -4.7365179616   -1.9344031330    3.4597001674
C       -3.9122999172   -2.5985362477    4.3085353065
C       -1.5672838730   -0.4194497466    2.7059281953
C       -2.7615353951   -1.1545346662    3.1522033422
N       -0.3528687273   -0.6752287184    3.2428779327
N       -1.7560094260    0.5048648835    1.7489051560
N       -3.9947168180   -1.0285273564    2.7389717164
O       -2.6571366785   -2.1235653042    4.1335237278
H        1.4012459380    1.5331032461    1.4725552695
H        1.6725746712   -0.1803420443    3.2283348708
H       -0.8478368814    1.9427732204    0.5414266341
H       -5.8045179280   -2.0924929125    3.3656204082
H       -4.2069823718   -3.3739196953    5.0051354411
16   

C        0.5418700653    1.0100455577    1.8753384281
C        0.6938932239    0.0030387663    2.8004172239
C       -0.7233344916    1.2752183256    1.4015238561
C       -4.7099286375   -2.0308829566    3.3712851543
C       -3.9239253543   -2.5611522339    4.3417314297
C       -1.5694809895   -0.4189194107    2.7038512655
C       -2.7662633005   -1.1489628187    3.1532201611
N       -0.3512114947   -0.6998722685    3.2191851127
N       -1.7694755096    0.5722733125    1.8189647141
N       -3.9608223167   -1.1526407893    2.6243712614
O       -2.6865031864   -2.0270665121    4.2188585609
H        1.3933072533    1.5809139163    1.5334215344
H        1.6782447837   -0.2220563208    3.1949489296
H       -0.8701955380    2.0690041209    0.6780446021
H       -5.7559731380   -2.2638284276    3.2100554009
H       -4.2323226198   -3.2861086693    5.0851252842
16   

C        0.5979745880    0.8531018457    1.7563279774
C       -0.3961166727    1.4746926859    2.4760162153
C        0.4829445689   -0.4979474410    1.5184421799
C       -3.9296227212   -2.8759803826    3.9284292872
C       -4.6165718629   -1.7075489312    3.9846082651
C       -1.4726472766   -0.5480637769    2.7248364727
C       -2.6255460079   -1.3481765063    3.1755755822
N       -1.4310258461    0.7862378788    2.9413964097
N       -0.5514015026   -1.1873322576    1.9853474193
N       -2.6694849395   -2.6259683864    3.4385339312
O       -3.8064940647   -0.7225148150    3.5321182451
H        1.4421788656    1.4130509785    1.3801512291
H       -0.3373701524    2.5402028113    2.6670570079
H        1.2453656049   -1.0081309415    0.9409356203
H       -4.3103313833   -3.8460030193    4.2260630481
H       -5.6350365964   -1.5838524446    4.3320659366
16   

C        0.5689882887    0.8715706885    1.7224231926
C       -0.3877906366    1.4668838930    2.5112134358
C        0.4270231709   -0.4645365301    1.4236308248
C       -3.9056179151   -2.8408374522    4.0478972714
C       -4.6408459053   -1.7088056629    3.9149626584
C       -1.4661305941   -0.5597737231    2.7231230822
C       -2.6216733901   -1.3634341186    3.1721693703
N       -1.4088351758    0.7654181739    2.9875047012
N       -0.5936414797   -1.1661988809    1.9027220242
N       -2.6276872697   -2.5930315791    3.6050361616
O       -3.8430783733   -0.7512316175    3.3881794669
H        1.4028208930    1.4412068106    1.3377668776
H       -0.3109533103    2.5219447977    2.7482512059
H        1.1561075049   -0.9525395562    0.7869381175
H       -4.2649484330   -3.7830400214    4.4448942553
H       -5.6832657915   -1.5909077189    4.1846842203
16   

C        0.5455178045    0.8997341028    1.7084888202
C       -0.3606362454    1.4617178186    2.5772471945
C        0.3659292149   -0.4147549147    1.3422325019
C       -3.8911781236   -2.7756386929    4.1805542260
C       -4.6598990273   -1.7091594569    3.8471063084
C       -1.4537984945   -0.5619593934    2.7370103695
C       -2.6089975001   -1.3690837869    3.1965672664
N       -1.3666836677    0.7471059431    3.0656126938
N       -0.6398043041   -1.1291633807    1.8345128499
N       -2.5951895841   -2.5240685446    3.7956881570
O       -3.8643385792   -0.7912905224    3.2511189889
H        1.3676873740    1.4793244065    1.3137363537
H       -0.2559560256    2.5008108844    2.8680407729
H        1.0522485427   -0.8748448584    0.6405381375
H       -4.2400557642   -3.6740964878    4.6760681475
H       -5.7232029002   -1.6086626406    4.0275644827
16   

C        0.5299882531    0.9102133559    1.7115321975
C       -0.3038814048    1.4361285569    2.6709299732
C        0.2845733562   -0.3691609093    1.2667125181
C       -3.9070943369   -2.7009758013    4.2816582803
C       -4.6950032401   -1.7477639631    3.7237571023
C       -1.4582469152   -0.5563153344    2.7487684390
C       -2.6115783175   -1.3634286152    3.2290920036
N       -1.3047947171    0.7199404480    3.1675173058
N       -0.7156806128   -1.0860516851    1.7670537892
N       -2.5938726319   -2.4188595949    3.9857099661
O       -3.8938546495   -0.8709634798    3.0754547831
H        1.3477153160    1.4910882766    1.3094900560
H       -0.1455179585    2.4476282319    3.0273382031
H        0.9139605610   -0.7990457541    0.4958873259
H       -4.2555317421   -3.5422301830    4.8693404272
H       -5.7751312862   -1.6966094025    3.7869288261
16   

C        0.6021050524    0.8569645318    1.7983058312
C       -0.1092869912    1.3340590034    2.8756127007
C        0.2115187514   -0.3378027619    1.2355694599
C       -3.9171258869   -2.6649629791    4.3175954183
C       -4.6923217160   -1.9476834927    3.4642459158
C       -1.4743504222   -0.5152003559    2.7788121827
C       -2.6236319271   -1.3123750311    3.2916249820
N       -1.1431196862    0.6578794294    3.3609540593
N       -0.8227560545   -1.0161177907    1.7205709239
N       -2.6128503108   -2.2452491045    4.1933172265
O       -3.8932629908   -1.0790935130    2.8015310435
H        1.4445396576    1.4071365813    1.4041245747
H        0.1750153571    2.2735062875    3.3359166790
H        0.7542656538   -0.7322155052    0.3841157865
H       -4.2691736944   -3.4410570135    4.9871052272
H       -5.7628424488   -2.0520862187    3.3361086039
16   

C        0.6936533768    0.7566380622    1.8693583975
C        0.1092381862    1.1680351789    3.0452399986
C        0.1375218637   -0.3131768580    1.2045249294
C       -3.9103800602   -2.6324237846    4.3485881689
C       -4.5958411802   -2.2135473490    3.2550119022
C       -1.5082699164   -0.4512970737    2.7972532127
C       -2.6578079717   -1.2296652904    3.3307606956
N       -0.9717145821    0.5590287926    3.5161734370
N       -0.9461702170   -0.9213656854    1.6742781813
N       -2.6771100467   -2.0238054795    4.3582639729
O       -3.8110393483   -1.3435530487    2.5777611694
H        1.5727635147    1.2536184463    1.4847721184
H        0.5344593589    1.9987386387    3.5969358113
H        0.5897037240   -0.6669050739    0.2850125436
H       -4.2731204977   -3.3362562368    5.0885351512
H       -5.5950949992   -2.5220293418    2.9728341355
16   

C        0.7013608633    0.7342394304    1.8563764276
C        0.1913107092    1.0868144025    3.0844170124
C        0.0606609518   -0.2547390271    1.1448762012
C       -3.9460652436   -2.5217537656    4.4236542331
C       -4.5392134071   -2.3126397985    3.2218171198
C       -1.5277878163   -0.4203437647    2.7957815768
C       -2.6806488808   -1.1826799398    3.3308197095
N       -0.9002318230    0.5012187160    3.5598971134
N       -1.0335638144   -0.8391441317    1.6203392914
N       -2.7588060165   -1.8288773053    4.4575632802
O       -3.7427624693   -1.4905462033    2.5001404876
H        1.5890659066    1.2124271255    1.4677488224
H        0.6848419788    1.8507824912    3.6743538868
H        0.4542691234   -0.5643621301    0.1834753228
H       -4.3395989811   -3.1401115825    5.2219235802
H       -5.4835425877   -2.7313852945    2.8959693287
16   

C        0.6791988062    0.7545533088    1.8375133617
C        0.2265716005    1.0431543219    3.1039491299
C       -0.0145411062   -0.1728236002    1.0938940989
C       -4.0049311861   -2.4002254149    4.4901307931
C       -4.5041153662   -2.3708365825    3.2293622189
C       -1.5379093742   -0.4096308674    2.7990505095
C       -2.6924606036   -1.1631347926    3.3296527631
N       -0.8595417725    0.4543887963    3.5873089326
N       -1.1030646304   -0.7609637122    1.5777469089
N       -2.8478532445   -1.6583059102    4.5254558056
O       -3.6786079673   -1.6140693203    2.4699880586
H        1.5627472640    1.2353502895    1.4426840637
H        0.7614485384    1.7586839553    3.7180962633
H        0.3318719607   -0.4302792697    0.0995116054
H       -4.4425566193   -2.9281301425    5.3293358068
H       -5.4046711666   -2.8673239025    2.8890960658
16   

C        0.6599126819    0.7892382251    1.8096092004
C        0.2558382549    1.0117526862    3.1053861769
C       -0.0711026450   -0.0877519500    1.0411157100
C       -4.0664686944   -2.2885455629    4.5122441279
C       -4.4631724334   -2.4243107309    3.2224669518
C       -1.5265763238   -0.4181013507    2.7906759977
C       -2.6826881491   -1.1680852169    3.3132557480
N       -0.8173075124    0.4053128581    3.5954320116
N       -1.1464673258   -0.6942013396    1.5317398107
N       -2.9323388767   -1.5121183562    4.5473881972
O       -3.5951594963   -1.7391726223    2.4428419443
H        1.5332716521    1.2842381576    1.4096886737
H        0.8186432653    1.6893363033    3.7373618246
H        0.2342736920   -0.2894205749    0.0207444143
H       -4.5597619054   -2.7251086930    5.3727887148
H       -5.3234531154   -2.9841036804    2.8763012487
16   

C        0.6294076491    0.8262767467    1.7902325428
C        0.2726459439    0.9839824056    3.1091958439
C       -0.1337352174   -0.0066796872    1.0042113791
C       -4.1400769363   -2.1832362220    4.5201388867
C       -4.4305953134   -2.4769213939    3.2284109833
C       -1.5155532864   -0.4385121097    2.7915777259
C       -2.6734916508   -1.1861795937    3.3086164109
N       -0.7832074726    0.3539801007    3.6068317108
N       -1.1915707643   -0.6373323437    1.5023516696
N       -3.0253022578   -1.3791905543    4.5518199329
O       -3.5136340674   -1.8661223973    2.4431018827
H        1.4890887994    1.3401271239    1.3844834097
H        0.8587941443    1.6295876573    3.7533160633
H        0.1309386361   -0.1524652599   -0.0368357015
H       -4.6944597455   -2.5282593508    5.3850553015
H       -5.2524734898   -3.0931285736    2.8847732796
16   

C        0.5898078255    0.8762619770    1.7727202824
C        0.2840115871    0.9680425197    3.1105953297
C       -0.2076048648    0.0878750452    0.9748306873
C       -4.2211124197   -2.0703416903    4.5082968980
C       -4.4054175969   -2.5124869973    3.2395712528
C       -1.5081915876   -0.4497870830    2.7943051359
C       -2.6678672084   -1.1944533766    3.3104140411
N       -0.7525634858    0.3131530482    3.6165124231
N       -1.2458837770   -0.5681688463    1.4812459901
N       -3.1237759062   -1.2424826400    4.5340625255
O       -3.4373259675   -1.9737866149    2.4629325717
H        1.4342983937    1.4097746590    1.3604945026
H        0.8948009355    1.5817917543    3.7629126506
H        0.0129490121   -0.0005466561   -0.0828191947
H       -4.8379513636   -2.3277267531    5.3613649106
H       -5.1902248300   -3.1801868893    2.9056001552
