65

C      2.03125    5.51312    3.50128
C      0.73658    4.99364    3.47975
C      0.47169    0.39292   -2.58921
C      3.10776    4.81573    2.95457
C     -0.08482    0.21739   -1.32270
C      1.60864    3.02843    2.32811
C     -2.32112    0.52528   -2.23979
C      0.53719    3.73665    2.88777
C     -0.36193    0.63094   -3.68577
C     -1.74695    0.69642   -3.50176
C      2.92033    3.54821    2.34581
C     -1.47754    0.28245   -1.14467
C     -2.50048    1.87517    2.47195
C     -2.96865    3.04677    2.99844
C     -0.79104    3.13326    2.81205
C      1.53530    0.31353   -7.09364
C     -2.43923    0.99994   -4.81402
C     -1.35482    0.67046   -5.86636
C     -0.00129    0.88332   -5.13971
C     -4.30762    3.58905    3.35479
C      6.18423    3.23055    2.91118
C      3.32958    1.46516   -0.20089
C     -3.27015    0.67604    2.00726
C      1.12813   -0.00531   -5.66112
C      5.30677    3.43354    1.66786
C      3.80502    1.49856    1.25877
C     -3.23303    0.49523    0.48710
N     -1.11213    1.95002    2.36739
N      3.97853    2.84594    1.78857
O      1.19738    1.29483   -7.71257
O     -1.87637    3.86359    3.22370
O      2.37217   -0.60062   -7.67600
O     -1.91510    0.08221    0.13436
H      2.21466    6.48137    3.96072
H     -0.09619    5.54068    3.90792
H      1.55316    0.35252   -2.70258
H      4.09481    5.25834    3.01581
H      0.53289    0.04000   -0.44812
H      1.38146    2.07771    1.86430
H     -3.39941    0.56490   -2.11906
H     -3.36028    0.42590   -4.95895
H     -2.71294    2.06277   -4.85541
H     -1.44203   -0.38586   -6.15096
H     -1.43331    1.26715   -6.77668
H      0.31167    1.92797   -5.26591
H     -4.36239    3.84688    4.41842
H     -4.53808    4.49356    2.78042
H     -5.08035    2.84609    3.14438
H      5.72236    3.67702    3.79634
H      6.32715    2.16357    3.11219
H      7.17072    3.68634    2.76803
H      2.36275    1.96154   -0.31581
H      4.04848    1.97264   -0.85321
H      3.22747    0.42959   -0.54617
H     -2.86959   -0.23078    2.47295
H     -4.31685    0.76689    2.31593
H      2.02617    0.11278   -5.03987
H      0.83685   -1.06131   -5.58338
H      5.79496    2.97878    0.79925
H      5.21814    4.49866    1.43171
H      4.76826    0.98362    1.34107
H      3.11453    0.93941    1.89736
H     -3.96079   -0.26674    0.17329
H     -3.48143    1.44091   -0.01023
H      2.54194   -1.33139   -7.05743
