55

C     -1.26717    2.55467    1.35034
C     -0.16601    3.01286    0.60441
C     -1.49433    1.18939    1.46279
C      0.68676    2.11641   -0.03376
C     -0.63771    0.26625    0.83487
C      0.44613    0.74005    0.07388
C     -0.83217   -1.18492    1.01847
C      0.29538   -2.09027    0.46752
C      0.82401   -1.44832   -0.85759
C      2.06029   -2.13857   -1.43277
C     -1.16310   -0.41891   -4.11228
C      1.58262   -7.15528    1.24954
C      1.53878   -4.53645    4.95609
C     -0.28490   -3.51334    0.26518
C      1.40196   -2.06043    1.56475
C     -0.29473   -1.37109   -1.92859
C     -0.05875   -0.35256   -3.05134
C      0.73415   -4.66176    0.18715
C      0.95162   -2.66563    2.90362
O     -1.77709   -1.64318    1.65166
O     -0.24539   -5.66649    2.46997
O     -0.89005   -6.80662    0.28492
O      2.87051   -4.50442    2.65645
O      3.25977   -2.59386    4.29179
O      1.30419   -0.09834   -0.56396
S      0.11785   -6.11341    1.10511
S      2.33790   -3.55978    3.66994
H     -1.92902    3.26429    1.83792
H      0.02095    4.07999    0.51567
H     -2.32515    0.79804    2.04231
H      1.53284    2.45618   -0.62356
H      2.39589   -1.60114   -2.32212
H      1.83516   -3.16553   -1.72420
H      2.88936   -2.14421   -0.72347
H     -1.20376   -1.40687   -4.58523
H     -0.99681    0.32202   -4.90101
H     -2.14699   -0.22138   -3.67185
H      1.25887   -8.05408    1.77803
H      1.93063   -7.41357    0.24770
H      2.33500   -6.60769    1.81882
H      2.33882   -5.08428    5.45777
H      1.04989   -3.85717    5.65676
H      0.82936   -5.21301    4.47775
H     -0.92073   -3.53154   -0.61982
H     -0.96786   -3.68706    1.09808
H      1.74085   -1.03596    1.72173
H      2.27137   -2.60662    1.19866
H     -0.39981   -2.36694   -2.37202
H     -1.25992   -1.15052   -1.45953
H     -0.01804    0.65602   -2.62951
H      0.91316   -0.52717   -3.52537
H      0.90490   -5.01617   -0.83131
H      1.69176   -4.43508    0.65448
H      0.63241   -1.90781    3.62171
H      0.16326   -3.41024    2.79835
