22   

C        1.8238938342   -0.2070890580    0.1170454962
C        0.5374414203   -0.4647881300    0.5837179593
C        2.9231731938   -0.4412936299    0.9457545139
C        0.3551696671   -0.9612013053    1.8752615046
C        2.7602446371   -0.9282505904    2.2537354472
C        1.4492037356   -1.2002008328    2.7250431419
C        3.9531985060   -1.1290921218    3.0993932345
C        5.2694877430   -0.8026800157    2.8750549637
C        1.1983328420   -1.7642440173    4.1035144972
C        6.3746217888   -1.6108833429    2.2243155503
H        1.9718098668    0.1771392966   -0.8856538939
H       -0.3198394564   -0.2828043751   -0.0543815170
H        3.9180023914   -0.2317798475    0.5709698136
H       -0.6522450477   -1.1634608050    2.2200314278
H        3.7298488140   -1.3035487089    4.1440643000
H        5.7022178369   -0.3425201293    3.7570547924
H        1.7832098799   -2.6777522395    4.2492454471
H        1.4768369547   -1.0315676824    4.8668704950
H        0.1420661637   -2.0156359163    4.2379587331
H        7.1847199899   -1.7954640550    2.9363356274
H        5.9841740294   -2.5733419653    1.8799822654
H        6.7767260887   -1.0679621609    1.3641066081
22   

C        1.9183344676   -0.2777416286    0.1185838758
C        0.6174746824   -0.5044750326    0.5602170490
C        2.9921114122   -0.4761811001    0.9889903666
C        0.3952460208   -0.9337007885    1.8692726338
C        2.7888643338   -0.8920198415    2.3165916628
C        1.4628198606   -1.1326065084    2.7618781094
C        3.9509288606   -1.0579426601    3.2115149556
C        5.2683485942   -0.7942056483    2.9670551580
C        1.1704164453   -1.6401215316    4.1540499464
C        6.2419611261   -1.5944965357    2.1295795955
H        2.0972327375    0.0553854157   -0.8972532631
H       -0.2198949035   -0.3517618878   -0.1111348688
H        3.9967902736   -0.2881629075    0.6303157246
H       -0.6225419337   -1.1173184253    2.1933797500
H        3.7030021279   -1.1413231218    4.2621052744
H        5.7822488975   -0.4269998324    3.8489913792
H        1.7666142459   -2.5341698032    4.3621098438
H        1.4053139166   -0.8692990952    4.8939235477
H        0.1152339885   -1.9095604631    4.2590353265
H        7.0998470274   -1.9037224560    2.7342406595
H        5.7522086588   -2.4888576268    1.7321632640
H        6.5998651184   -0.9888066141    1.2919909774
22   

C        1.9917915940   -0.3489971212    0.1221959315
C        0.6818365642   -0.5520885625    0.5468538169
C        3.0465616619   -0.4987249738    1.0249046970
C        0.4314157421   -0.9073547258    1.8724888327
C        2.8154364435   -0.8377613234    2.3709119676
C        1.4791243179   -1.0523455156    2.7983627101
C        3.9496860461   -0.9540397934    3.3096488035
C        5.2718480682   -0.8033437466    3.0405424708
C        1.1576179348   -1.4986857584    4.2049748379
C        6.1010109956   -1.6096942927    2.0681300118
H        2.1926159989   -0.0702731570   -0.9058464034
H       -0.1404884236   -0.4390205180   -0.1504459995
H        4.0551494915   -0.3217887273    0.6738539352
H       -0.5927761516   -1.0783266792    2.1830017030
H        3.6919865536   -0.9501576888    4.3614398404
H        5.8576031220   -0.5054431295    3.9034995663
H        1.7703392914   -2.3648702582    4.4744885026
H        1.3488642446   -0.6868387545    4.9125504356
H        0.1078215486   -1.7947349467    4.2909101571
H        6.9752435100   -2.0296848804    2.5745422003
H        5.5088771476   -2.4316259221    1.6536663370
H        6.4424832348   -0.9718322922    1.2476946377
22   

C        2.0318559463   -0.3945843513    0.1304415721
C        0.7175281309   -0.5867458693    0.5443889085
C        3.0749004777   -0.5037359624    1.0522010311
C        0.4508629681   -0.8874261041    1.8797628143
C        2.8291929341   -0.7905430184    2.4091641409
C        1.4862260139   -0.9883273399    2.8252507278
C        3.9408906428   -0.8659347598    3.3788418925
C        5.2662531168   -0.8478981216    3.1106868506
C        1.1461876585   -1.3889988604    4.2413210352
C        5.9805488523   -1.6240643588    2.0322286914
H        2.2454052198   -0.1531388090   -0.9044503249
H       -0.0953679577   -0.5065884229   -0.1683570775
H        4.0820376679   -0.3226404589    0.7023681629
H       -0.5766025844   -1.0524807797    2.1824842461
H        3.6784648456   -0.8008390129    4.4276076544
H        5.8956558825   -0.6283567663    3.9663014918
H        1.7706009305   -2.2319426794    4.5544855359
H        1.3063247549   -0.5480946796    4.9219546247
H        0.1016393629   -1.7056826390    4.3174468704
H        6.8492915169   -2.1381801430    2.4542169120
H        5.3150212158   -2.3740221431    1.5932338075
H        6.3252582654   -0.9468398375    1.2453357345
22   

C        2.0535810232   -0.4207018125    0.1368668781
C        0.7393586367   -0.6100145951    0.5501546582
C        3.0934586844   -0.4962644387    1.0653316685
C        0.4694986558   -0.8706703645    1.8927206196
C        2.8468140678   -0.7478440385    2.4304152912
C        1.5013860261   -0.9355560210    2.8452690036
C        3.9458931223   -0.7887228665    3.4177773021
C        5.2640742623   -0.9128678013    3.1642209043
C        1.1560978485   -1.3032153848    4.2691384675
C        5.8994606687   -1.6321136966    2.0022226780
H        2.2696893928   -0.2045927294   -0.9030929780
H       -0.0707969489   -0.5570593276   -0.1682305570
H        4.0952100269   -0.3033630032    0.7093364158
H       -0.5580709603   -1.0344218726    2.1957065151
H        3.6843034410   -0.6786665826    4.4630944957
H        5.9159469164   -0.7730988662    4.0197200738
H        1.7924248449   -2.1260214618    4.6107854406
H        1.2943809809   -0.4413588068    4.9278237646
H        0.1172229757   -1.6382713150    4.3446022264
H        6.7612558290   -2.2091085533    2.3507465857
H        5.1911202114   -2.3263976287    1.5395037830
H        6.2474063733   -0.9131202646    1.2547841825
22   

C        2.0629796581   -0.4432211969    0.1397020424
C        0.7492917289   -0.6222579605    0.5573865814
C        3.1032782592   -0.4975045427    1.0690274103
C        0.4803157179   -0.8485757063    1.9058951785
C        2.8595696995   -0.7188581567    2.4407434345
C        1.5125301513   -0.8905700817    2.8594949639
C        3.9528406501   -0.7386497734    3.4356488000
C        5.2544893322   -0.9988925713    3.2117394484
C        1.1655652375   -1.2283324868    4.2905065988
C        5.8636128270   -1.6272916029    1.9867068803
H        2.2785437082   -0.2496188850   -0.9048032275
H       -0.0610117982   -0.5867517115   -0.1619059628
H        4.1005926710   -0.3026602856    0.7039114465
H       -0.5471946517   -1.0048275037    2.2129413596
H        3.6914950644   -0.6005130136    4.4777064979
H        5.9040451666   -0.9403749664    4.0783408610
H        1.8047226290   -2.0405465079    4.6517838211
H        1.2975129427   -0.3516192239    4.9304995761
H        0.1284681067   -1.5678376119    4.3705944707
H        6.7294478367   -2.2304570110    2.2758382537
H        5.1481020071   -2.2880747024    1.4877514699
H        6.2052061586   -0.8549921128    1.2913246030
22   

C        2.0589636584   -0.4656191898    0.1389580779
C        0.7457546847   -0.6236757788    0.5652209160
C        3.1026179792   -0.5086507263    1.0650477002
C        0.4806074773   -0.8162940249    1.9193643023
C        2.8641086041   -0.6975869135    2.4429809536
C        1.5161818927   -0.8455654577    2.8698583003
C        3.9580651193   -0.7077045078    3.4381311429
C        5.2327158947   -1.0947516037    3.2469790540
C        1.1703436378   -1.1534236979    4.3080243083
C        5.8574555298   -1.6106930191    1.9790487789
H        2.2718155211   -0.2962093183   -0.9102981750
H       -0.0670204174   -0.5978165863   -0.1516904501
H        4.0970982390   -0.3253739796    0.6880796518
H       -0.5469111077   -0.9575773940    2.2334914565
H        3.6968005363   -0.5531447808    4.4778475133
H        5.8635514167   -1.1164573999    4.1289939212
H        1.8048313608   -1.9629769046    4.6833606891
H        1.3089843037   -0.2656169765    4.9309825486
H        0.1315553164   -1.4855492782    4.3967288895
H        6.7412420034   -2.2074330010    2.2237617212
H        5.1624217491   -2.2565638724    1.4340256432
H        6.1776743306   -0.7791711601    1.3444353170
22   

C        2.0671777663   -0.4349999003    0.1363004843
C        0.7549784788   -0.4523378562    0.5946925009
C        3.0975245767   -0.9010948551    0.9548075892
C        0.4772957333   -0.9426991081    1.8692444735
C        2.8446591691   -1.4084809087    2.2465575105
C        1.4988824501   -1.4315441895    2.7022950860
C        3.9260596001   -1.9396228117    3.1032682177
C        5.2378426250   -1.6446831955    3.0370857067
C        1.1458388732   -1.8661719580    4.1054058993
C        5.8809450618   -0.4963587654    2.3060412440
H        2.2888977148   -0.0711216988   -0.8603809914
H       -0.0474115819   -0.0858263504   -0.0354453142
H        4.0924041006   -0.9137581121    0.5353243972
H       -0.5482975629   -0.9322532414    2.2192708177
H        3.6481076280   -2.5851507806    3.9274683456
H        5.8749510554   -2.1620607398    3.7461399858
H        1.2420810295   -2.9510281698    4.2026220311
H        1.8062535695   -1.3772339914    4.8289581015
H        0.1192328319   -1.5816052590    4.3551055921
H        6.2061574378   -0.8119298414    1.3103804570
H        5.1926203613    0.3502614855    2.2224333228
H        6.7619352496   -0.1568685970    2.8589233275
22   

C        2.0580579977   -0.4500267111    0.1255977986
C        0.7448752851   -0.4554806815    0.5831433271
C        3.0867069581   -0.8996168426    0.9555685392
C        0.4646804223   -0.9146920413    1.8691705243
C        2.8291081864   -1.3790193285    2.2561006250
C        1.4846685159   -1.3855407623    2.7143208661
C        3.9150337739   -1.8907034038    3.1183492119
C        5.2400121978   -1.6998802725    2.9590494615
C        1.1313425332   -1.7924701289    4.1254797049
C        5.9150569331   -0.5078940355    2.3307756808
H        2.2817188951   -0.1067064122   -0.8779108194
H       -0.0564150711   -0.1027212628   -0.0561755209
H        4.0866940995   -0.9159320684    0.5466615118
H       -0.5612954389   -0.8951103418    2.2177456023
H        3.6353682633   -2.5142682472    3.9586950061
H        5.8747524411   -2.2830270895    3.6173789255
H        1.2329786826   -2.8746666378    4.2450941124
H        1.7886210535   -1.2857880270    4.8395533947
H        0.1026663174   -1.5087000130    4.3673853000
H        6.2499508837   -0.7510358671    1.3181494651
H        5.2363969915    0.3500314180    2.2951330334
H        6.7901697634   -0.2236502140    2.9227784242
22   

C        2.0349158320   -0.4713343827    0.1039469391
C        0.7226280352   -0.4753434261    0.5661282231
C        3.0700336676   -0.8861220011    0.9441739167
C        0.4500562340   -0.8946633106    1.8678993936
C        2.8177360668   -1.3290617652    2.2572417952
C        1.4769584302   -1.3284082380    2.7243150954
C        3.9198344465   -1.7996901563    3.1208236859
C        5.2469771090   -1.7224261708    2.8729396210
C        1.1332241617   -1.7012183329    4.1470860651
C        5.9987333743   -0.5274471151    2.3412925180
H        2.2527708577   -0.1538204295   -0.9092784721
H       -0.0840023258   -0.1507881193   -0.0813625252
H        4.0748887485   -0.8952978658    0.5445811963
H       -0.5751104991   -0.8744252369    2.2188889720
H        3.6430914498   -2.3851400167    3.9889662243
H        5.8587634371   -2.3712128457    3.4903668983
H        1.2588559469   -2.7770967381    4.2978597410
H        1.7801810749   -1.1600706830    4.8450258465
H        0.0983397499   -1.4344000761    4.3815793564
H        6.3304812846   -0.7159203588    1.3160705946
H        5.3631388208    0.3635844783    2.3540592244
H        6.8787099238   -0.3326812088    2.9616238324
22   

C        1.9937622024   -0.4944365541    0.0766004355
C        0.6846623476   -0.4949487862    0.5497208339
C        3.0389929413   -0.8712665439    0.9223820261
C        0.4256542661   -0.8694794892    1.8683869761
C        2.7983672414   -1.2711830044    2.2498843775
C        1.4633083245   -1.2623124940    2.7314568525
C        3.9214517437   -1.6985684586    3.1090830210
C        5.2419759419   -1.7308743493    2.7963906330
C        1.1351941932   -1.5976757369    4.1670718426
C        6.1077973731   -0.5631689280    2.3833631955
H        2.2011218384   -0.2070121359   -0.9477409039
H       -0.1301939819   -0.2013047380   -0.1022068916
H        4.0466369966   -0.8760819549    0.5268579075
H       -0.5971069382   -0.8480639699    2.2263251524
H        3.6481882874   -2.2394864548    4.0065492690
H        5.8064744859   -2.4531002396    3.3762826703
H        1.2883601020   -2.6649517829    4.3508522284
H        1.7722005671   -1.0193169548    4.8438879932
H        0.0946748100   -1.3507363750    4.3982532150
H        6.4446433592   -0.6929113806    1.3507599741
H        5.5447314030    0.3725664879    2.4563095277
H        6.9850505445   -0.4945416486    3.0336141986
22   

C        1.9185618423   -0.5525209453    0.0360077534
C        0.6188309966   -0.5409066292    0.5352538741
C        2.9844482771   -0.8698184055    0.8805124585
C        0.3900130778   -0.8417425041    1.8785286492
C        2.7739010709   -1.1922928157    2.2327078900
C        1.4493738772   -1.1698437149    2.7423154699
C        3.9266234170   -1.5531267161    3.0810851179
C        5.2385905003   -1.6996196582    2.7315325726
C        1.1515605033   -1.4443291752    4.1973709483
C        6.2506737079   -0.6176219663    2.4240520013
H        2.1025696257   -0.3193239059   -1.0064242054
H       -0.2124402751   -0.2955828331   -0.1159191792
H        3.9881241453   -0.8807370844    0.4732122516
H       -0.6263720866   -0.8163320712    2.2539868077
H        3.6651013719   -2.0151940591    4.0246188365
H        5.7264094855   -2.4872281388    3.2958484606
H        1.3504841503   -2.4941902600    4.4318564819
H        1.7723801807   -0.8077374415    4.8356442523
H        0.1039034111   -1.2310465777    4.4296511902
H        6.6016708580   -0.7166666058    1.3927886287
H        5.7965743761    0.3704764979    2.5470767123
H        7.1086474438   -0.6958280054    3.0985682714
22   

C        1.8215680807   -0.6081660736   -0.0009521323
C        0.5369179803   -0.5839040857    0.5359257613
C        2.9148658983   -0.8748456394    0.8258536277
C        0.3506658586   -0.8206527643    1.8986416016
C        2.7473863716   -1.1288996072    2.1976765631
C        1.4385474775   -1.0939700973    2.7459728577
C        3.9329503842   -1.4362005917    3.0214303385
C        5.2415866369   -1.6451174488    2.6562640925
C        1.1845711586   -1.3152883062    4.2183102896
C        6.3814341860   -0.6558966561    2.5141390567
H        1.9726073184   -0.4235956764   -1.0583250800
H       -0.3158009312   -0.3795796690   -0.1015234637
H        3.9081870659   -0.8951787300    0.3934833520
H       -0.6550003588   -0.7905330814    2.3016152164
H        3.6992807259   -1.8194281599    4.0064155037
H        5.6461094781   -2.5098999271    3.1714709795
H        1.4276998892   -2.3463917581    4.4918120842
H        1.7960193792   -0.6299775011    4.8135397726
H        0.1349307073   -1.1324315713    4.4668883997
H        6.7794739878   -0.6893170284    1.4958773944
H        6.0267369106    0.3588479229    2.7186472626
H        7.1858833398   -0.8944909152    3.2164458223
