40

C      5.08488   -0.01630    5.76911
C      5.01334    0.69343    4.55942
C      3.29167   -1.44826    5.02978
C      4.23289   -1.08792    6.00983
C      4.08039    0.33888    3.58656
C      3.20156   -0.75052    3.82753
C     -0.59774   -0.45242    3.05188
C     -0.34573   -0.92263    1.58816
C      0.18650   -1.43296    3.95599
C      0.57041   -2.16344    1.70021
C      1.28300   -1.99794    3.04246
C      6.51692   -3.08618    6.56189
C      4.78103    2.06857    2.10261
C      5.07132   -3.24630    7.04145
C      4.34370   -1.90935    7.27384
O      3.01139   -2.14234    7.76582
O      2.32734   -1.03047    2.81861
O      3.92239    0.97161    2.38353
H      5.81365    0.28192    6.51876
H      5.68590    1.52768    4.39502
H      2.61521   -2.26608    5.24388
H     -0.22379    0.56533    3.19086
H     -1.66146   -0.44124    3.30684
H     -1.27581   -1.15745    1.06213
H      0.15795   -0.13648    1.02021
H      0.58586   -0.96140    4.85642
H     -0.45164   -2.26456    4.27835
H     -0.02281   -3.08426    1.73789
H      1.28290   -2.25474    0.87636
H      1.72205   -2.93484    3.40385
H      6.55686   -2.57828    5.59421
H      7.10798   -2.49651    7.27256
H      7.00160   -4.06200    6.45513
H      4.49732    2.42262    1.11031
H      5.83501    1.76203    2.09078
H      4.64783    2.88057    2.82918
H      5.06294   -3.81137    7.98536
H      4.49312   -3.82976    6.31548
H      4.91264   -1.32848    8.01571
H      3.07541   -2.77570    8.49838
