37

C     -2.78508   -2.28162   -1.13158
C     -2.40768   -2.73215    1.16544
C     -3.14168   -3.01570    0.00020
C     -1.74862   -1.34009   -1.07506
C     -1.02533   -1.19397    0.12663
C     -3.74750    1.25381   -0.43455
C     -4.32635    2.06640   -1.57314
C      0.06621    1.17224    0.33935
C      0.49640    0.34185    1.52762
C     -2.92807    1.51412   -1.66595
C      0.21370   -0.34284    0.21817
C     -4.21954   -4.06896   -0.01605
C      1.40984   -0.90534   -0.54335
C     -1.46233   -0.49496   -2.28425
N     -1.38298   -1.87886    1.22381
N     -2.67016    0.39649   -2.61725
H     -3.31805   -2.46191   -2.06768
H     -2.65769   -3.23784    2.09778
H     -3.43977    1.76311    0.47232
H     -4.13197    0.25170   -0.27428
H     -5.10722    1.60825   -2.17513
H     -4.42161    3.14148   -1.46432
H     -0.93406    1.59204    0.37846
H      0.80491    1.79848   -0.15511
H      1.53274    0.40284    1.84433
H     -0.21604    0.19536    2.33153
H     -2.07485    2.18121   -1.62274
H     -3.79190   -5.05424   -0.23238
H     -4.72223   -4.13661    0.95231
H     -4.97521   -3.86284   -0.77922
H      2.27563   -0.24473   -0.44106
H      1.21384   -1.03066   -1.61489
H      1.68532   -1.88588   -0.14258
H     -0.62452    0.18237   -2.13490
H     -1.28908   -1.09271   -3.18396
H     -3.50397   -0.20044   -2.66407
H     -2.54764    0.78975   -3.55876
