21   
Generated by ForceBalance from scan.xyz: Frame 1 of 24
C        4.3285873351    1.6744279119    1.0666024512
C        5.4335414502    1.9226779873    0.2477089549
C        3.4673756759    0.6274220068    0.7446766866
C        5.6246301119    1.0896304457   -0.8574730079
C        3.7212566232   -0.1211998161   -0.4177724195
C        1.4903627043   -1.1698980133   -0.7181226483
C        0.7727376465    0.1658856122   -0.5945071498
C        3.4938621383   -2.4668072645   -1.1869136944
N        4.7923706100    0.0969470468   -1.1926009396
N        2.8747226882   -1.1884748671   -0.8043032186
O        0.8494771911   -2.2146959856   -0.8101574032
H        4.1508031834    2.2703398996    1.9580473419
H        6.1361985356    2.7214571643    0.4643543309
H        2.6318028380    0.3769114989    1.3884203431
H        6.4848566659    1.2278848850   -1.5108075318
H        0.4147667683    0.3068776112    0.4296998575
H       -0.1071411866    0.1064073504   -1.2384890523
H        1.3786047289    1.0274996153   -0.8772406582
H        4.5214747276   -2.2716905763   -1.4870117809
H        2.9403581625   -2.9041260007   -2.0184393178
H        3.4685911002   -3.1708542385   -0.3485846805
21   
Generated by ForceBalance from scan.xyz: Frame 2 of 24
C        4.4694512309    1.5321100864    1.0066089351
C        5.5379066642    1.7043766313    0.1224657027
C        3.5650131610    0.4957173658    0.7842914801
C        5.6494664735    0.8099956338   -0.9450802235
C        3.7400255471   -0.3202061457   -0.3476366388
C        1.5002075767   -1.3654656714   -0.2958351318
C        0.7651265836   -0.0338275074   -0.3284887659
C        3.4449196794   -2.6984127177   -0.9155537186
N        4.7748036534   -0.1732605404   -1.1859376328
N        2.8483901739   -1.3818171878   -0.6383780345
O        0.8982962988   -2.4068944055   -0.0498971577
H        4.3530855632    2.1790182425    1.8722843452
H        6.2719929104    2.4920523200    0.2616725919
H        2.7574997801    0.3051477898    1.4823584154
H        6.4785033245    0.8889272941   -1.6468188957
H        0.4160598387    0.2243887331    0.6751946988
H       -0.1233202283   -0.1843594353   -0.9474851583
H        1.3514736812    0.7924889822   -0.7310836377
H        2.7340526193   -3.2962691981   -1.4850926835
H        3.6760851273   -3.2280434500    0.0155387217
H        4.3544859666   -2.5435641820   -1.4935028618
21   
Generated by ForceBalance from scan.xyz: Frame 3 of 24
C        4.4730552597    1.5093077384    1.0058922971
C        5.5679048458    1.6703333414    0.1527103802
C        3.5562055655    0.4913051145    0.7511648676
C        5.6914703053    0.7832792862   -0.9197094514
C        3.7474447039   -0.3189617754   -0.3831100507
C        1.5358139074   -1.3753079297   -0.2192476780
C        0.7292575431   -0.0929642120   -0.3466128453
C        3.4478852879   -2.6798244866   -0.9719705327
N        4.8059970342   -0.1810687587   -1.1934120780
N        2.8444585687   -1.3593276627   -0.7148416768
O        1.0356365743   -2.3984470842    0.2328991534
H        4.3447549043    2.1507471941    1.8739846333
H        6.3119826205    2.4432460025    0.3188124946
H        2.7297340058    0.3102263967    1.4294987872
H        6.5404611721    0.8530673236   -1.5982765317
H        0.3038497345    0.1778884208    0.6230138566
H       -0.1083768360   -0.3144350419   -1.0155106923
H        1.2933244686    0.7468256056   -0.7529982066
H        2.7137926810   -3.3106791270   -1.4726781064
H        3.7475637000   -3.1680563315   -0.0378357851
H        4.3161431823   -2.5342614726   -1.6123606992
21   
Generated by ForceBalance from scan.xyz: Frame 4 of 24
C        4.4539083288    1.5682205904    0.9890062590
C        5.5841061606    1.6739195368    0.1741003019
C        3.4986602179    0.5938992313    0.7065635070
C        5.7012348539    0.7771775368   -0.8908366388
C        3.6903009435   -0.2313577508   -0.4181159877
C        1.4780567197   -1.2313865074   -0.1684030659
C        0.6167532005   -0.0035946623   -0.4018103933
C        3.3203664687   -2.5589582531   -1.0460518254
N        4.7809086732   -0.1450225973   -1.1927584227
N        2.7465945958   -1.2223270766   -0.7864235978
O        1.0787541596   -2.1900643679    0.4760175772
H        4.3261673452    2.2188788863    1.8503325963
H        6.3579626407    2.4113237175    0.3636252826
H        2.6442441385    0.4561533839    1.3602459859
H        6.5753027732    0.8034332622   -1.5401453640
H        0.0963722759    0.2696245240    0.5187909383
H       -0.1435403778   -0.2828060691   -1.1399530775
H        1.1753742015    0.8476793122   -0.7923881581
H        2.5488257889   -3.1918149183   -1.4852298250
H        3.6768569108   -3.0295470829   -0.1230291439
H        4.1461502570   -2.4399520715   -1.7451434431
21   
Generated by ForceBalance from scan.xyz: Frame 5 of 24
C        4.4729251033    1.6093411835    0.9851851460
C        5.6421058966    1.6424750775    0.2191106635
C        3.4942095748    0.6611832401    0.6992538528
C        5.7706151499    0.6994064939   -0.8023733630
C        3.7037687204   -0.2188056406   -0.3829423863
C        1.5161487111   -1.2146933067   -0.0285186979
C        0.5401306623   -0.1045917758   -0.3558275103
C        3.2814238729   -2.5105620584   -1.0988905510
N        4.8310802039   -0.2025188214   -1.1085215354
N        2.7365753013   -1.1756417640   -0.7677113963
O        1.2757427427   -2.0913821285    0.7827185227
H        4.3322282369    2.2982876632    1.8141707727
H        6.4342163955    2.3582907416    0.4154194076
H        2.6099191359    0.5845172247    1.3224218957
H        6.6725488843    0.6663496481   -1.4122275718
H       -0.0975374601    0.1064003176    0.5045593367
H       -0.0952677671   -0.4588484189   -1.1764724713
H        1.0437920650    0.8004575888   -0.7001042614
H        2.4638581664   -3.1413968441   -1.4503775293
H        3.7487053676   -2.9865467208   -0.2299370904
H        4.0187130740   -2.3888945398   -1.8901954573
21   
Generated by ForceBalance from scan.xyz: Frame 6 of 24
C        4.4806324605    1.6956499628    0.9494222107
C        5.7020889985    1.6119417974    0.2704833889
C        3.4725489949    0.7819677210    0.6633090658
C        5.8467777010    0.5885797324   -0.6657300347
C        3.7093240893   -0.1960188609   -0.3293771853
C        1.5399230673   -1.1981167049    0.1138851823
C        0.4238589340   -0.2679105356   -0.2959387553
C        3.1972142224   -2.4264785107   -1.1895578755
N        4.8846213538   -0.2927284712   -0.9675078825
N        2.7157163188   -1.1107657909   -0.7212876930
O        1.4685671314   -1.9702185135    1.0482652352
H        4.3198538350    2.4550500205    1.7105193232
H        6.5168338530    2.3004997818    0.4710536218
H        2.5410453047    0.8092743338    1.2183691924
H        6.7845380202    0.4636717773   -1.2058472189
H       -0.3150192057   -0.1752393396    0.5015096420
H       -0.0579124906   -0.6882961423   -1.1869884248
H        0.8170347727    0.7104273616   -0.5839848726
H        2.3329435231   -3.0223511171   -1.4903018119
H        3.7491809707   -2.9627255641   -0.4098662135
H        3.8475478470   -2.2722352317   -2.0487012624
21   
Generated by ForceBalance from scan.xyz: Frame 7 of 24
C        4.7215214034    1.5884900222    1.3265809676
C        5.7246598317    1.6676220077    0.3493404247
C        3.7460822107    0.6044097766    1.2337573897
C        5.6914095135    0.7360281194   -0.6836609857
C        3.7903842318   -0.2731773390    0.1273510965
C        1.4759578343   -0.9678436876    0.3267212248
C        0.4822741480   -0.7935072510   -0.8078823072
C        2.9816408743   -2.1383501328   -1.2306095327
N        4.7464048829   -0.2106602042   -0.8059261250
N        2.8219970688   -1.2960533021   -0.0362976263
O        1.1364196251   -0.8912541965    1.4933197666
H        4.7111195352    2.2793146886    2.1659233502
H        6.5090356891    2.4168030067    0.3945006862
H        2.9812516963    0.4919383700    1.9920726875
H        6.4536097165    0.7425755841   -1.4616244773
H       -0.4314522377   -0.3580588168   -0.4028394997
H        0.2359659193   -1.7574772254   -1.2630815003
H        0.8925514210   -0.1537900865   -1.5953725512
H        2.2601814475   -2.9559086796   -1.1769357552
H        3.9864308375   -2.5591941549   -1.2211587860
H        2.8589414076   -1.5902937220   -2.1721150333
21   
Generated by ForceBalance from scan.xyz: Frame 8 of 24
C        4.7749520770    1.5913625219    1.3595729892
C        5.7917061289    1.6579478320    0.3970990141
C        3.7567703320    0.6551640952    1.2243954072
C        5.7300051120    0.7628615262   -0.6669911747
C        3.7747382089   -0.1838046302    0.0890763115
C        1.4309326347   -0.8566190379    0.2422418315
C        0.3583267392   -0.9633762114   -0.8298190540
C        2.9537779642   -1.9969507310   -1.3308441551
N        4.7464462222   -0.1359392423   -0.8287804012
N        2.7623453428   -1.1551431933   -0.1407816882
O        1.1347741810   -0.6095260027    1.4017671237
H        4.7848525553    2.2535502617    2.2217060356
H        6.6083847073    2.3689515150    0.4760251974
H        2.9752841991    0.5538874492    1.9653975893
H        6.5010701517    0.7601416305   -1.4361822240
H       -0.5093726196   -0.3997804756   -0.4852805190
H        0.0513302060   -2.0060823893   -0.9614409370
H        0.6938069493   -0.5858412361   -1.7990244093
H        2.2039769657   -2.7887100734   -1.3247739975
H        3.9417693729   -2.4525872360   -1.2747179703
H        2.8990385565   -1.4366401737   -2.2705942115
21   
Generated by ForceBalance from scan.xyz: Frame 9 of 24
C        4.8594630145    1.5444876105    1.4442115377
C        5.8877790811    1.5793777160    0.4944252373
C        3.7982428648    0.6591578787    1.2860516240
C        5.7953466709    0.7037159897   -0.5843938153
C        3.7894610720   -0.1634735917    0.1397195400
C        1.4229373787   -0.8083783418    0.2698682894
C        0.3090237626   -1.1628513177   -0.7039448111
C        2.9518818066   -1.9667210081   -1.2922327659
N        4.7742330842   -0.1458639623   -0.7665955684
N        2.7409635757   -1.0872634528   -0.1325222247
O        1.1536128028   -0.3731059225    1.3831945932
H        4.8896679772    2.1931669220    2.3160664123
H        6.7352531203    2.2510584413    0.5919020114
H        3.0021057787    0.5898996903    2.0130266044
H        6.5724040315    0.6772074500   -1.3470953924
H       -0.5782251779   -0.6104113529   -0.3932902573
H        0.0760663468   -2.2314599531   -0.6490237634
H        0.5555091439   -0.9229381984   -1.7411514641
H        2.2063872240   -2.7609568882   -1.2753912157
H        3.9410366004   -2.4151803965   -1.2115987484
H        2.9058584892   -1.4310293470   -2.2462284365
21   
Generated by ForceBalance from scan.xyz: Frame 10 of 24
C        4.8927306685    1.4979168648    1.4762731868
C        5.9357195804    1.5148352832    0.5437128043
C        3.7911289744    0.6716089637    1.2728008149
C        5.8186316972    0.6805905261   -0.5659129066
C        3.7630690729   -0.1155987686    0.1028470369
C        1.3755415825   -0.7270061648    0.1913628018
C        0.2542030680   -1.2894307154   -0.6707725730
C        2.9224718212   -1.9139799950   -1.3399538525
N        4.7629607198   -0.1134728000   -0.7884018836
N        2.6856748717   -0.9889893836   -0.2208814802
O        1.1087358309   -0.1190435521    1.2235856605
H        4.9385622016    2.1166564423    2.3689473927
H        6.8117698390    2.1427919228    0.6748167711
H        2.9773335481    0.6272252694    1.9804395514
H        6.6043787686    0.6434766443   -1.3192363613
H       -0.6641457211   -0.7868528714   -0.3669767722
H        0.1288724063   -2.3629728944   -0.4941907749
H        0.4221330656   -1.1405830839   -1.7404684554
H        2.1952848101   -2.7232190697   -1.2975309601
H        3.9209233658   -2.3357170615   -1.2393400324
H        2.8675121118   -1.4153652739   -2.3131939866
21   
Generated by ForceBalance from scan.xyz: Frame 11 of 24
C        4.9115877163    1.4242884258    1.5016207122
C        5.9669452780    1.4357896064    0.5833507175
C        3.7772496195    0.6581400173    1.2475036460
C        5.8300805051    0.6555679578   -0.5629100705
C        3.7348199801   -0.0818893629    0.0485135239
C        1.3307387060   -0.6379199630    0.0899409020
C        0.2154844146   -1.3912975155   -0.6215115813
C        2.8906247640   -1.8900713124   -1.3849265525
N        4.7458048544   -0.0839660227   -0.8301187957
N        2.6356868332   -0.9111436633   -0.3165205285
O        1.0587345259    0.1539247726    0.9885969936
H        4.9704491376    2.0035217547    2.4196284838
H        6.8660698393    2.0210091124    0.7511555488
H        2.9486067408    0.6315217950    1.9382088931
H        6.6230198592    0.6184491387   -1.3086087355
H       -0.7253669121   -0.9449794100   -0.3003245478
H        0.2112613652   -2.4497198375   -0.3405700250
H        0.2954753338   -1.3331810642   -1.7104726762
H        2.1817955645   -2.7120699029   -1.3039522690
H        3.8982944131   -2.2840427052   -1.2684028302
H        2.8212169932   -1.4392491063   -2.3802224083
21   
Generated by ForceBalance from scan.xyz: Frame 12 of 24
C        4.6254854354    1.6077543881    1.2481592381
C        5.8600783797    1.2505453290    0.6945871414
C        3.4758318926    0.9096593165    0.8908593722
C        5.8754872784    0.1950013964   -0.2142685193
C        3.6038917476   -0.1475722038   -0.0325461635
C        1.3303336157   -1.0679724323    0.2412501644
C        0.2322255534   -1.9286530783   -0.3681819199
C        2.7072822058   -1.6628916469   -1.7480721520
N        4.7811371295   -0.4903782345   -0.5713823689
N        2.4969387299   -0.9103539195   -0.5010735578
O        1.1688231543   -0.5638519738    1.3499753959
H        4.5532654275    2.4301206137    1.9554433519
H        6.7763819950    1.7724229143    0.9537086767
H        2.5143775409    1.1598915990    1.3127262353
H        6.8063949141   -0.1239630196   -0.6810872805
H       -0.5679925298   -1.9914992184    0.3687386141
H        0.5808583891   -2.9374017459   -0.6076934151
H       -0.1661730558   -1.4834695389   -1.2857444526
H        1.7569688292   -1.8102808296   -2.2565933099
H        3.1754823729   -2.6338161660   -1.5570259727
H        3.3698806610   -1.0959481205   -2.3989610104
21   
Generated by ForceBalance from scan.xyz: Frame 13 of 24
C        4.6701448732    1.6047325281    1.3286192357
C        5.9039914504    1.1939230301    0.8129182625
C        3.4989001997    0.9782458099    0.9114996724
C        5.8981062402    0.1590022630   -0.1199676645
C        3.6075131598   -0.0697499631   -0.0250250449
C        1.3137825467   -0.9526878467    0.2030671546
C        0.3228430294   -1.9890781436   -0.3085332896
C        2.7184340872   -1.5723924896   -1.7521648017
N        4.7843859906   -0.4612482895   -0.5308429339
N        2.4821955835   -0.7779408852   -0.5363449300
O        1.0549138150   -0.3051080909    1.2141810369
H        4.6141922955    2.4167095964    2.0492331170
H        6.8359728868    1.6616771963    1.1157066107
H        2.5342452903    1.2746090021    1.2935785053
H        6.8277261396   -0.1968303485   -0.5620111681
H       -0.4383773707   -2.1086226094    0.4620665400
H        0.7911528896   -2.9556429692   -0.5134529605
H       -0.1649325803   -1.6494914724   -1.2283117668
H        1.7768636778   -1.7286014177   -2.2750753829
H        3.1810397474   -2.5388084312   -1.5273478850
H        3.3946091234   -1.0243355602   -2.4054342050
21   
Generated by ForceBalance from scan.xyz: Frame 14 of 24
C        4.6677780232    1.5528307209    1.3516863680
C        5.8949288868    1.1272799446    0.8312570237
C        3.4828418527    0.9865186033    0.8903396992
C        5.8683660165    0.1378022629   -0.1490929739
C        3.5712957038   -0.0255648690   -0.0880992285
C        1.2613148588   -0.8649136969    0.1176674273
C        0.3887909457   -2.0599799981   -0.2393131597
C        2.6785304107   -1.5372724673   -1.8025099976
N        4.7415373964   -0.4297046730   -0.5993299473
N        2.4315113121   -0.6877607528   -0.6271988370
O        0.9001557209   -0.0817888510    0.9908328987
H        4.6279459232    2.3334560946    2.1072341495
H        6.8370546410    1.5519983626    1.1644072410
H        2.5206455420    1.3031265359    1.2630120088
H        6.7918150824   -0.2248611982   -0.5985310858
H       -0.3176163270   -2.1949174872    0.5798463804
H        0.9625952202   -2.9780786188   -0.3892467682
H       -0.1827933836   -1.8653363782   -1.1529553798
H        1.7354590119   -1.7306059931   -2.3110630490
H        3.1602416731   -2.4847127356   -1.5395311271
H        3.3407722641   -1.0066357961   -2.4842395032
21   
Generated by ForceBalance from scan.xyz: Frame 15 of 24
C        4.6675024384    1.5074523856    1.3963493143
C        5.8949276591    1.0573138444    0.8947766050
C        3.4790192738    1.0036287742    0.8780293171
C        5.8633435817    0.1077001033   -0.1232587803
C        3.5627705512    0.0222580631   -0.1323119933
C        1.2442723008   -0.7690031862    0.0459080733
C        0.4957340772   -2.0794155421   -0.1470370683
C        2.6661818643   -1.4765547936   -1.8507606423
N        4.7311131969   -0.4046065646   -0.6265196595
N        2.4106631988   -0.5771928858   -0.7155404497
O        0.7878941648    0.0998179749    0.7796131215
H        4.6328439009    2.2615574770    2.1786225504
H        6.8407562500    1.4363102266    1.2697922426
H        2.5157339433    1.3478270643    1.2254920895
H        6.7867087519   -0.2691486563   -0.5610019323
H       -0.1665469088   -2.2013103210    0.7105344459
H        1.1602342782   -2.9426738146   -0.2327330342
H       -0.1250940561   -2.0384056793   -1.0481971248
H        1.7218843465   -1.6997841952   -2.3460703778
H        3.1613384136   -2.4069033486   -1.5533216649
H        3.3183962845   -0.9655968920   -2.5575688248
21   
Generated by ForceBalance from scan.xyz: Frame 16 of 24
C        4.6422138845    1.3921811829    1.4477431168
C        5.8761423307    0.9236345318    0.9760764382
C        3.4635552084    0.9307292449    0.8739358790
C        5.8583457748    0.0017315306   -0.0665362765
C        3.5601519612   -0.0281637260   -0.1577340533
C        1.2424531437   -0.7866173136   -0.0075453232
C        0.6567652101   -2.1895283804   -0.0063743127
C        2.6698144210   -1.5087218971   -1.8877564806
N        4.7327763949   -0.4728952583   -0.6226306583
N        2.4063370551   -0.5706397907   -0.7867927411
O        0.6759813257    0.1288097412    0.5706933540
H        4.5984998373    2.1278878537    2.2469226585
H        6.8168225374    1.2701220521    1.3929545274
H        2.4958753169    1.2960156882    1.1905151620
H        6.7877984755   -0.3851106996   -0.4820761459
H        0.0039170528   -2.2734824966    0.8631025992
H        1.4255087556   -2.9658531166    0.0217506723
H        0.0469916426   -2.3503509752   -0.9014278995
H        1.7263907914   -1.7442294486   -2.3813236521
H        3.1622952397   -2.4313238881   -1.5616541389
H        3.3263644731   -1.0198694915   -2.6066772706
21   
Generated by ForceBalance from scan.xyz: Frame 17 of 24
C        4.6068661257    1.3405552039    1.4546149035
C        5.8390302217    0.8521850427    0.9955025999
C        3.4320213499    0.9388370409    0.8326002707
C        5.8209742156   -0.0268675651   -0.0829387209
C        3.5265706428    0.0201396352   -0.2366401649
C        1.2096117788   -0.6824355335   -0.1057332741
C        0.8193132818   -2.1327591396    0.1163691021
C        2.6055241992   -1.3948438216   -2.0047887208
N        4.6966814646   -0.4460763351   -0.6865882024
N        2.3680371553   -0.4401152197   -0.9123824613
O        0.5392118364    0.2355641682    0.3300792180
H        4.5644452124    2.0449230550    2.2816016593
H        6.7781716504    1.1517879888    1.4502676086
H        2.4683611610    1.3274793143    1.1375232079
H        6.7493918724   -0.4259396156   -0.4891472894
H        0.0574751999   -2.1699987010    0.8953337172
H        1.6873396349   -2.7342863568    0.4034234783
H        0.4045010467   -2.5698942144   -0.7968439819
H        1.6600639949   -1.5734399320   -2.5205329966
H        3.0357302357   -2.3456877034   -1.6690969616
H        3.3058759832   -0.9444104442   -2.7072354107
21   
Generated by ForceBalance from scan.xyz: Frame 18 of 24
C        4.6364438126    0.8838884971    1.5458544588
C        5.8780200412    0.7552174321    0.9119294805
C        3.5104762588    0.3012171212    0.9752184623
C        5.9146962037    0.0450819274   -0.2876952465
C        3.6634519313   -0.4276730355   -0.2262508276
C        1.2632027771   -0.7950308045   -0.3314458705
C        0.8060377761   -1.6910357563    0.7941760355
C        2.6416122714   -1.2260618438   -2.2981668256
N        4.8464462604   -0.5364251532   -0.8480179061
N        2.5854476790   -1.1012553848   -0.8274237819
O        0.5879268232    0.0968166258   -0.8034865291
H        4.5410125510    1.4502383928    2.4688620747
H        6.7786755010    1.2023723305    1.3206402202
H        2.5370108699    0.4365487414    1.4341024737
H        6.8503655646   -0.0657324407   -0.8344564067
H       -0.0550776206   -1.2593983914    1.3066631369
H        1.6227326425   -1.8875912027    1.4934231783
H        0.5209502186   -2.6583256285    0.3629568897
H        1.7702973162   -1.7950261543   -2.6292538718
H        3.5489092307   -1.7643588601   -2.5663012137
H        2.6414893701   -0.2488285506   -2.7933737526
21   
Generated by ForceBalance from scan.xyz: Frame 19 of 24
C        4.5831026229    0.9220572986    1.4780984770
C        5.8549781771    0.6816575057    0.9494177604
C        3.4689398596    0.3550595210    0.8650855260
C        5.9383504579   -0.1199249070   -0.1906809308
C        3.6667511276   -0.4754116590   -0.2577033304
C        1.2828661742   -0.9310075285   -0.3715024421
C        0.9884731873   -1.7120917779    0.8915453020
C        2.6490176220   -1.1003305104   -2.3830036885
N        4.8825978815   -0.6938627986   -0.7788278811
N        2.5921297557   -1.1274396502   -0.9049955420
O        0.4631397163   -0.2088946263   -0.9110182854
H        4.4543336601    1.5647901582    2.3452629436
H        6.7483138595    1.1128981626    1.3902694780
H        2.4722005148    0.5813801946    1.2276794320
H        6.9029079194   -0.3175730245   -0.6565850042
H        0.2355231199   -1.1963239591    1.4902489524
H        1.8888258414   -1.9048810663    1.4776460148
H        0.5804353861   -2.6836842348    0.5878828592
H        1.8189549508   -1.6909931840   -2.7729075570
H        3.5935243605   -1.5427566408   -2.6940070123
H        2.5734426267   -0.0800859435   -2.7746533013
21   
Generated by ForceBalance from scan.xyz: Frame 20 of 24
C        4.5491783924    0.9218860993    1.4472319636
C        5.8323541722    0.6148496344    0.9870330268
C        3.4438132762    0.3695565313    0.8032822139
C        5.9387538284   -0.2353431362   -0.1165089107
C        3.6620174224   -0.5119326615   -0.2728433225
C        1.2905095909   -1.0728181696   -0.4062068540
C        1.1092579434   -1.7327189916    0.9485885929
C        2.6457515416   -1.0320419437   -2.4282017862
N        4.8902078489   -0.7961559195   -0.7285989506
N        2.5887644969   -1.1367751315   -0.9554531775
O        0.3581656683   -0.5590456920   -1.0066695893
H        4.4056733213    1.6028900079    2.2822152295
H        6.7206880208    1.0308499831    1.4521623798
H        2.4385804288    0.6410451766    1.1067664246
H        6.9158416085   -0.4854711550   -0.5276311311
H        0.4617794615   -1.1203769153    1.5800636299
H        2.0514360279   -1.9421076734    1.4562631523
H        0.5949245064   -2.6844209868    0.7737062309
H        1.8837170132   -1.6843957809   -2.8552827467
H        3.6342907490   -1.3547510913   -2.7498540456
H        2.4590873447   -0.0065069615   -2.7657579682
21   
Generated by ForceBalance from scan.xyz: Frame 21 of 24
C        4.5307640277    0.9116796667    1.4300844909
C        5.8162772194    0.5620928307    1.0087295061
C        3.4285979875    0.3919754430    0.7538725129
C        5.9291739572   -0.2943320575   -0.0895516341
C        3.6507401102   -0.4994224886   -0.3116497611
C        1.2897757759   -1.1577405210   -0.4875429359
C        1.1631435505   -1.7009935022    0.9267298468
C        2.6499362839   -0.9657655037   -2.4983636659
N        4.8817406359   -0.8228869940   -0.7316694101
N        2.5770392469   -1.0815464944   -1.0301309480
O        0.2992502603   -0.8648143386   -1.1467308083
H        4.3843207013    1.5995279030    2.2588808733
H        6.7031943552    0.9508318219    1.4995419091
H        2.4225378090    0.6920294966    1.0255520535
H        6.9097217929   -0.5764654156   -0.4704108993
H        0.5872627696   -1.0058807558    1.5429886161
H        2.1185249927   -1.9179511350    1.4050575780
H        0.5826873994   -2.6263041651    0.8568481081
H        1.9392185734   -1.6626303711   -2.9420125127
H        3.6635083310   -1.2167781001   -2.8061043489
H        2.3969538102    0.0477175940   -2.8296207314
21   
Generated by ForceBalance from scan.xyz: Frame 22 of 24
C        4.5428523989    0.9475233967    1.4137163213
C        5.8220905938    0.5478119046    1.0179463089
C        3.4363634800    0.4759079053    0.7102148442
C        5.9252951322   -0.3061900356   -0.0830242041
C        3.6459293938   -0.4185796843   -0.3543970020
C        1.2991885700   -1.1673631867   -0.5645190755
C        1.1997932541   -1.6020494473    0.8900815932
C        2.6532222296   -0.8497722919   -2.5666699495
N        4.8712673129   -0.7874856772   -0.7517413848
N        2.5635550973   -0.9457776417   -1.1007117031
O        0.2938246614   -1.0909499697   -1.2650508696
H        4.4064006698    1.6365419026    2.2432070951
H        6.7129360540    0.8975398297    1.5305575816
H        2.4359972566    0.8107255646    0.9609167237
H        6.9017892233   -0.6258866315   -0.4439281675
H        0.6680068347   -0.8432122222    1.4708624578
H        2.1600060559   -1.8113869947    1.3621739418
H        0.5837597713   -2.5050745352    0.9032461463
H        2.0012289471   -1.6011096712   -3.0111132021
H        3.6872353576   -1.0304392624   -2.8555635280
H        2.3319986511    0.1382356747   -2.9152621708
21   
Generated by ForceBalance from scan.xyz: Frame 23 of 24
C        4.5482830938    0.9498175589    1.4368520297
C        5.8185470553    0.5160495262    1.0473906538
C        3.4347770391    0.5171273751    0.7197171803
C        5.9064681311   -0.3297849744   -0.0609611957
C        3.6270102048   -0.3728311156   -0.3512399478
C        1.3155589462   -1.2501714284   -0.5739839777
C        1.2348221838   -1.5811009068    0.9089705873
C        2.6317681716   -0.8001112054   -2.5763636731
N        4.8439303836   -0.7725125134   -0.7435216573
N        2.5326626754   -0.8562415760   -1.1101114900
O        0.3326731590   -1.3951184116   -1.2977215643
H        4.4253894244    1.6346584188    2.2718782965
H        6.7149506467    0.8343801046    1.5707021183
H        2.4413107440    0.8755066245    0.9647826474
H        6.8760745496   -0.6748037746   -0.4169756959
H        0.7365760504   -0.7700216984    1.4483455425
H        2.2003934319   -1.7740788732    1.3779082050
H        0.5991365066   -2.4646642246    0.9959310904
H        2.0731631994   -1.6318314441   -3.0048292728
H        3.6825987881   -0.8724982003   -2.8510554056
H        2.2057863118    0.1349812362   -2.9564762272
21   
Generated by ForceBalance from scan.xyz: Frame 24 of 24
C        4.4112229117    1.6130004319    0.9329503436
C        5.4531699587    1.7662729674    0.0127252040
C        3.5278323912    0.5465793137    0.7860902903
C        5.5624683935    0.8217572911   -1.0094419423
C        3.6953466515   -0.3203766518   -0.3082718232
C        1.4489172706   -1.3755302317   -0.5060753441
C        0.7537583376   -0.0377812005   -0.3048556629
C        3.4573461948   -2.6846226561   -0.9635853104
N        4.7072722332   -0.1952568090   -1.1769647065
N        2.8383018271   -1.4279496375   -0.5122331070
O        0.7862016503   -2.3933410659   -0.6932015496
H        4.3015135391    2.2990711732    1.7688169012
H        6.1702008725    2.5774945455    0.0935667435
H        2.7432074661    0.3695797463    1.5125592347
H        6.3732715302    0.8826988967   -1.7338718619
H        0.5342181094    0.1200242441    0.7555682712
H       -0.1991578542   -0.0986931298   -0.8323657024
H        1.3256361644    0.8169267994   -0.6692089026
H        3.5018115569   -2.7311240903   -2.0553100904
H        2.8564588690   -3.5144424616   -0.5941308256
H        4.4708928202   -2.7413466522   -0.5670892617
