28

C     -1.28156    0.58404   -1.54472
C     -0.75012   -0.44346   -0.74719
C     -2.41710    0.35180   -2.32833
C     -1.32646   -1.71845   -0.70926
C     -2.99689   -0.91674   -2.29518
C     -2.45401   -1.92870   -1.49949
C     -5.84886   -0.69649   -1.20560
C     -7.02274   -0.24651    0.73488
C     -5.68881   -0.95139    1.03998
C     -4.11729   -2.97398   -2.62800
C     -4.23159   -1.46309   -2.96154
N     -6.83590    0.05239   -0.69782
N     -5.50091   -0.81426   -2.47556
O     -3.15093   -3.10521   -1.56486
O     -5.19612   -1.37069   -0.28279
H     -0.80028    1.55686   -1.56193
H      0.13721   -0.24881   -0.15141
H     -2.82728    1.14256   -2.95228
H     -0.91271   -2.51697   -0.10172
H     -7.89034   -0.89525    0.88411
H     -7.14654    0.67237    1.30916
H     -4.93430   -0.28344    1.45716
H     -5.78241   -1.85155    1.64347
H     -5.05629   -3.42319   -2.30157
H     -3.73930   -3.51380   -3.50108
H     -4.26071   -1.30096   -4.04005
H     -7.51087    0.55672   -1.26039
H     -6.05420   -0.30718   -3.15709
