28

C     -0.19152   -0.25653    2.63567
C     -0.69296   -1.00513    1.55798
C     -0.36484   -0.70572    3.95019
C     -1.38359   -2.20847    1.75564
C     -1.04937   -1.90381    4.15599
C     -1.55582   -2.63148    3.07254
C      0.94346   -3.80891    5.40201
C      2.53189   -4.41739    3.84734
C      2.91667   -4.92194    5.24939
C     -2.33423   -3.74770    4.88353
C     -1.32797   -2.69214    5.41170
N      1.15534   -3.95446    4.09674
N     -0.09985   -3.27935    6.02320
O     -2.16479   -3.80125    3.44580
O      1.93668   -4.27917    6.14373
H      0.32609    0.67861    2.44683
H     -0.55285   -0.63961    0.54475
H      0.02754   -0.13379    4.78720
H     -1.78445   -2.78299    0.92668
H      3.15696   -3.58679    3.50809
H      2.54300   -5.21290    3.10134
H      2.79192   -5.99911    5.36705
H      3.90464   -4.61182    5.58331
H     -2.17411   -4.74906    5.28478
H     -3.35722   -3.42293    5.09470
H     -1.76838   -2.09210    6.20915
H      0.57212   -3.50381    3.39649
H     -0.05888   -3.34305    7.03623
