18

C      2.37436   -1.25130   -0.32875
C      1.22671   -0.65797    0.19559
C      1.96274   -1.22096    2.44571
C      3.12253   -1.77885    1.90670
C      3.33725   -1.79810    0.52145
C      1.04259   -0.65320    1.57600
C      5.36850   -1.77610   -0.71913
N      4.09989   -2.34205    2.85911
O      3.64451   -2.79210    3.91568
O      5.29175   -2.30442    2.55629
O      4.44007   -2.46722    0.01045
F     -0.07253   -0.08990    2.08644
F      4.89751   -1.50213   -1.97026
F      6.42521   -2.58070   -0.85670
Cl     5.87544   -0.22264    0.01540
H      2.52877   -1.29815   -1.40048
H      0.47484   -0.21740   -0.45122
H      1.79487   -1.23008    3.51628
