36

C      3.40229    0.44551    3.76558
C      2.11753   -0.09928    3.81119
C      4.50276   -0.34177    3.40768
C      3.00212   -2.24770    3.14513
C      1.90546   -1.45106    3.49633
C      4.27171   -1.67893    3.10762
C     -0.48617   -1.12308    2.76993
C      1.47262    1.17664   -1.74733
C      0.48491    0.12405   -2.22303
C      1.51429   -0.76508   -0.00418
C     -0.35654    0.93571    0.10302
C      0.53964   -1.80252    0.57440
C     -1.27406   -0.15716    0.67017
C      0.74724    0.32015   -0.74345
C      0.50118   -2.02735    3.51476
N     -0.48079   -1.15289    1.40001
O     -1.23903   -0.38479    3.41278
F      5.32392   -2.46599    2.75731
H      3.55289    1.49406    4.00785
H      1.26904    0.52298    4.08177
H      5.51028    0.05971    3.36183
H      2.88447   -3.29877    2.89526
H      2.53119    0.99091   -1.90997
H      1.18301    2.22077   -1.83348
H     -0.46434    0.46491   -2.62833
H      0.88382   -0.76455   -2.70567
H      2.09270   -0.32382    0.81596
H      2.22383   -1.26480   -0.67388
H     -0.94904    1.64326   -0.48849
H      0.08222    1.49507    0.93904
H      0.02751   -2.32207   -0.24581
H      1.07322   -2.55446    1.15124
H     -2.01211    0.25456    1.35678
H     -1.79682   -0.66969   -0.14716
H      0.50110   -3.04651    3.11911
H      0.12840   -2.07113    4.54091
