36

C      0.24837   -5.17883    2.05936
C      0.74320   -3.88134    2.22562
C     -1.12258   -5.43282    2.14874
C     -1.50205   -3.05966    2.58465
C     -0.12438   -2.81264    2.48957
C     -1.96670   -4.35721    2.41042
C     -0.46086   -0.33700    2.01677
C      1.04014    1.51269   -3.07965
C     -0.09505    0.51062   -3.20769
C      1.28852   -0.19688   -1.12124
C     -0.39010    1.67469   -0.89693
C      0.37925   -1.07072   -0.24567
C     -1.25615    0.75438   -0.02783
C      0.47230    0.85964   -1.84702
C      0.40771   -1.40519    2.68754
N     -0.42090   -0.23959    0.65253
O     -1.18621    0.38275    2.71045
F     -3.30324   -4.58643    2.49914
H      0.93301   -5.99798    1.85657
H      1.81290   -3.69955    2.15134
H     -1.53526   -6.42866    2.02073
H     -2.20463   -2.25698    2.79050
H      2.02807    1.20668   -3.41435
H      0.81437    2.56169   -3.25291
H     -1.08041    0.88889   -3.46695
H      0.13390   -0.46510   -3.62854
H      2.03906    0.28911   -0.48365
H      1.82512   -0.83207   -1.83554
H     -1.03579    2.36295   -1.45421
H      0.24910    2.28245   -0.24358
H     -0.30177   -1.64893   -0.88568
H      0.96406   -1.78930    0.32327
H     -1.79808    1.31079    0.73546
H     -1.98567    0.22601   -0.65759
H      0.39444   -1.15098    3.75038
H      1.44726   -1.34658    2.35194
