41

C     -3.29861    7.83663   -3.30030
C     -3.34580    7.60510   -4.67626
C     -2.47451    4.16112   -1.20461
C     -3.59679    3.67400   -0.53975
C     -3.62854    4.20108   -4.75146
C     -4.77379    3.44875   -2.65633
C     -5.56053    6.68756   -4.40144
C     -3.64607    3.94678   -3.33602
C     -2.57251    4.81501   -5.34405
C     -4.36707    7.50064   -2.45669
C     -5.53032    6.94077   -3.02479
C     -4.47367    6.99123   -5.22667
C     -2.50752    4.30243   -2.59341
C     -4.74042    3.32695   -1.27551
C     -1.37825    5.15139   -4.55304
C     -2.60166    5.24741   -6.77136
C     -4.26011    7.70912   -0.96543
C     -6.70512    6.55686   -2.15838
C     -1.53590    4.69632   -7.68681
N     -3.48177    6.03081   -7.30362
N     -4.53486    6.58390   -6.60566
O     -0.38397    5.70842   -4.96981
O     -1.39834    4.81251   -3.20289
Br    -6.29755    2.70849   -0.34434
H     -2.40069    8.27505   -2.87106
H     -2.49231    7.84591   -5.30280
H     -1.57952    4.44857   -0.66186
H     -3.59038    3.57147    0.54025
H     -4.51350    3.96882   -5.33782
H     -5.66837    3.19457   -3.21596
H     -6.42470    6.19709   -4.84369
H     -5.05277    8.36608   -0.58887
H     -4.35009    6.75843   -0.42686
H     -3.29867    8.15475   -0.69771
H     -6.41932    5.82180   -1.39805
H     -7.11124    7.42462   -1.62546
H     -7.51210    6.12260   -2.75416
H     -1.55013    3.59935   -7.67894
H     -1.71040    5.04869   -8.70524
H     -0.54297    5.01410   -7.35627
H     -4.99437    7.25569   -7.20926
