36

C     -0.00565   -3.34678    5.20181
C      1.93685   -4.36017    4.19141
C     -2.54086    2.96501    3.43127
C     -0.40500    2.76625    4.51062
C     -2.13947    2.06108    2.45007
C      0.00513    1.84551    3.54204
C      0.13830   -4.16558    6.32249
C      2.09070   -5.18087    5.30013
C      0.21010   -1.28427    2.96876
C      0.88739   -3.42099    4.12097
C     -1.68446    3.33622    4.48205
C     -0.86429    1.46858    2.50282
C      1.19312   -5.09011    6.37761
C      0.72014   -2.54256    2.95405
C      0.03716   -0.55536    1.72427
C     -2.12971    4.33412    5.52658
C      0.54661   -5.88068    8.54152
N     -0.48663    0.58785    1.47521
O      1.42600   -5.93764    7.41961
S      1.17217   -3.21291    1.38251
S      0.66926   -1.46507    0.30172
H     -0.84386   -2.65769    5.15886
H      2.65632   -4.42962    3.37995
H     -3.53736    3.39966    3.37591
H      0.29042    3.04974    5.29816
H     -2.80382    1.79344    1.63319
H      1.01323    1.44023    3.56963
H     -0.57856   -4.08267    7.13128
H      2.90456   -5.89708    5.35996
H     -0.08926   -0.80880    3.89562
H     -2.34881    5.30990    5.07751
H     -3.04157    3.99986    6.03468
H     -1.35944    4.48468    6.28832
H      0.91735   -6.62466    9.24722
H     -0.48134   -6.13207    8.25421
H      0.56606   -4.89050    9.01222
