49

C     -8.47585    2.68958   -4.93955
C     -6.47781    1.56943   -4.15970
C     -3.08363   -0.92744    0.02165
C     -3.84841   -0.93664   -4.76337
C     -2.88475   -1.57836   -2.42527
C     -5.29587   -0.57789   -4.41868
C     -3.40085   -2.21512    2.07619
C     -1.63441   -2.92565    0.56405
C     -4.07015   -3.57965    1.91641
C     -2.32172   -4.28655    0.41971
C     -4.59748    1.03750   -2.70862
C     -2.30328   -0.70505   -1.28620
C     -2.86537   -0.62249   -3.62951
C     -3.11278    0.73483   -2.95366
C     -9.72636    3.17167   -5.60586
C     -3.68024   -5.93634    1.54000
N     -7.88735    3.29650   -3.95660
N     -6.75649    2.66678   -3.49659
N     -5.36373    0.80230   -3.94273
N     -2.61658   -1.89078    0.88211
N     -3.07238   -4.61398    1.62935
O     -4.09614   -0.26978    0.25842
O     -2.40979    0.65611   -1.70735
S     -7.65347    1.20233   -5.43379
H     -3.78945   -1.99699   -5.03557
H     -3.56067   -0.36016   -5.64962
H     -2.29450   -2.48230   -2.59783
H     -3.90594   -1.88786   -2.18437
H     -5.91173   -0.69001   -5.31313
H     -5.70486   -1.25867   -3.65499
H     -4.14330   -1.43173    2.22013
H     -2.72414   -2.23687    2.93848
H     -0.90448   -2.97782    1.38101
H     -1.09569   -2.68742   -0.35102
H     -4.58766   -3.84101    2.84569
H     -4.83167   -3.51521    1.11533
H     -2.97625   -4.26489   -0.47532
H     -1.56146   -5.05879    0.25613
H     -4.97973    0.41473   -1.89119
H     -4.72270    2.07565   -2.40790
H     -1.23622   -0.89905   -1.14262
H     -1.84826   -0.61129   -4.03779
H     -2.66614    1.55418   -3.52454
H     -9.56189    3.37249   -6.66993
H    -10.53361    2.43598   -5.52369
H    -10.04142    4.09612   -5.11742
H     -4.19045   -6.17059    2.47954
H     -2.90316   -6.69053    1.37873
H     -4.41706   -6.01838    0.71861
