36

C      1.97623    3.78297    3.01390
C      1.32211    2.61371    3.40692
C      1.25573    4.95232    2.74474
C     -0.80332    3.75757    3.27863
C     -0.07560    2.58977    3.53815
C     -0.12589    4.90891    2.88849
C     -0.28325    0.11455    3.10821
C      0.71073    1.20161   -2.12014
C     -0.54971    0.35232   -2.11668
C      0.83687   -0.36608   -0.03370
C     -0.57158    1.73278    0.08973
C     -0.12777   -1.03262    0.95779
C     -1.48692    1.00221    1.08446
C      0.12732    0.72962   -0.81461
C     -0.78284    1.30563    3.93227
N     -0.74120   -0.01887    1.82360
O      0.52388   -0.67516    3.60821
F     -0.84973    6.03160    2.63360
H      3.05811    3.78795    2.91222
H      1.89040    1.70914    3.60484
H      1.74159    5.87219    2.43463
H     -1.88597    3.78455    3.36900
H      1.63281    0.74084   -2.46501
H      0.61378    2.25399   -2.37429
H     -1.48875    0.83737   -2.37087
H     -0.47022   -0.67575   -2.46060
H      1.67823    0.06038    0.52715
H      1.24676   -1.12232   -0.71316
H     -1.16537    2.44058   -0.50027
H      0.17032    2.31421    0.64954
H     -0.92975   -1.54660    0.41316
H      0.38436   -1.75336    1.59332
H     -1.95058    1.70623    1.77170
H     -2.29465    0.49849    0.53789
H     -0.54838    1.05268    4.96904
H     -1.86670    1.42827    3.85861
