20

C      1.40392    0.63081    3.40444
C      1.40958    0.48286    4.78378
C      2.57517   -0.27529    5.10178
C      2.38384   -1.57576    1.03058
C      3.06557   -0.75730    6.43248
C      3.15854   -2.81459    1.40832
C      2.91459   -0.23402    1.57479
N      3.21579   -0.59608    3.97035
N      2.50600   -0.02600    2.95551
O      1.38103   -1.59025    0.33825
I      0.32254    1.79485    6.14926
H      0.72736    1.14692    2.73776
H      2.34937   -1.45570    6.87667
H      4.02841   -1.25890    6.32193
H      3.17108    0.07691    7.13244
H      3.39762   -2.80420    2.47602
H      2.59766   -3.71089    1.14006
H      4.11485   -2.81154    0.86983
H      2.50199    0.57104    0.96503
H      4.00696   -0.20034    1.54818
