36

C      4.06874   -2.38552    2.63923
C      2.77453   -2.88154    2.45122
C      4.27121   -1.12953    3.21657
C      1.85192   -0.87127    3.42714
C      1.65728   -2.13027    2.83841
C      3.14765   -0.40205    3.60014
C     -0.64773   -1.56879    1.98263
C      1.79089    1.53080   -1.75885
C      0.82941    0.64259   -2.53110
C      1.62156   -0.72914   -0.46588
C     -0.21190    0.98997   -0.17044
C      0.57385   -1.82205   -0.20327
C     -1.20413   -0.15695    0.06957
C      0.95333    0.51668   -1.02594
C      0.24657   -2.64213    2.61085
N     -0.50724   -1.31385    0.64376
O     -1.44696   -0.95142    2.69336
F      3.32698    0.82114    4.16373
H      4.92601   -2.97816    2.33151
H      2.63406   -3.85863    1.99514
H      5.26368   -0.71770    3.37070
H      1.00812   -0.26062    3.73591
H      2.85566    1.33799   -1.86189
H      1.53525    2.58139   -1.64824
H     -0.06876    1.09976   -2.93828
H      1.25204   -0.14304   -3.15235
H      2.13150   -0.49141    0.47492
H      2.37869   -1.10990   -1.16130
H     -0.72847    1.82935   -0.65010
H      0.15734    1.34497    0.80004
H      0.13185   -2.14282   -1.15557
H      1.03406   -2.69613    0.25200
H     -1.99639    0.13439    0.75737
H     -1.65580   -0.46777   -0.88091
H      0.26853   -3.55849    2.01503
H     -0.22467   -2.88093    3.56737
