51

C      1.62356    1.13908   -5.32293
C      0.56094   -0.70222   -6.49641
C      0.84539   -0.05872   -5.27965
C     -0.28464   -1.80260   -6.55589
C     -0.86282   -2.21630   -5.33266
C      0.26604   -0.59521   -4.08913
C      0.30897   -0.62506    0.80636
C     -0.31564    2.19780    0.88685
C      2.37753   -1.15909    3.75054
C      1.59290   -1.63530    4.95565
C     -0.56874    1.45700   -0.42173
C      1.74582    0.50196   -0.92629
C     -0.71961    1.30847    2.05396
C      1.65897    0.70628   -2.44449
C     -0.16281   -0.71252   -1.67120
C      1.03987   -0.53358    4.07651
C      0.28878    0.18168   -0.50210
C     -0.59148   -2.50108   -7.85812
C     -1.83725   -3.36680   -5.29458
C     -0.15255   -0.82899    3.19015
N      2.23841    2.12818   -5.40965
N     -0.58932   -1.63825   -4.16147
N      0.50089   -0.10989   -2.83784
N     -0.15950   -0.04132    1.95033
O      0.77337   -1.77164    0.80750
H      1.00659   -0.30506   -7.40488
H      0.74213    2.46927    0.97667
H     -0.89189    3.12771    0.93148
H      3.27232   -0.56891    3.92718
H      2.41686   -1.80640    2.88057
H      1.12126   -2.61262    4.89659
H      1.95178   -1.36963    5.94572
H     -1.63019    1.18404   -0.47778
H     -0.36806    2.09913   -1.28498
H      2.37454   -0.36067   -0.69337
H      2.15990    1.37693   -0.41898
H     -0.37874    1.74518    2.99883
H     -1.81663    1.24023    2.11027
H      1.50865    1.75757   -2.70648
H      2.56786    0.36979   -2.95201
H      0.16426   -1.74423   -1.51760
H     -1.24598   -0.71432   -1.80951
H      1.06686    0.46923    4.49927
H     -0.29320   -3.55564   -7.83221
H     -1.66261   -2.47700   -8.09009
H     -0.06140   -2.02747   -8.68897
H     -1.37620   -4.28629   -5.67349
H     -2.17089   -3.53501   -4.26998
H     -2.71001   -3.16593   -5.92686
H     -1.08649   -0.61721    3.72552
H     -0.15487   -1.88276    2.90940
