20

C      1.74437    1.47614    4.32098
C      2.17910    1.14928    5.59609
C      2.79646   -0.13129    5.49510
C      2.98438    0.59354    1.17162
C      3.36249   -1.00168    6.57575
C      4.35376    0.80937    1.76459
C      1.81710    0.24914    2.11490
N      2.70239   -0.56660    4.23178
N      2.07067    0.41674    3.53282
O      2.74922    0.66104   -0.02219
I      2.41765    2.57177    7.22899
H      1.23114    2.34854    3.94039
H      2.57031   -1.32141    7.26002
H      3.83011   -1.88748    6.14265
H      4.09729   -0.45409    7.17285
H      4.64473   -0.05657    2.36784
H      5.07491    0.98544    0.96570
H      4.33654    1.66807    2.44506
H      1.55374   -0.79727    1.93766
H      0.95828    0.85893    1.82690
