25   

C       -0.2394580072   -5.5681373652   -3.7790576546
C        0.0371670731   -4.7721853421   -2.5916552945
C       -0.4762114057   -4.7867473464   -4.8794516922
C       -0.0320760013   -1.0294300286   -1.8552099817
C        0.2404608229   -2.3720519471   -1.8595235012
C       -0.0001617853   -3.4173698093   -2.8393193816
C        0.4367654471   -0.5476016768   -0.5688644221
C       -2.2025714871   -0.3142759373   -2.9222588696
C        0.3307944530    0.8454415613   -0.0217302127
C       -0.6832592236   -0.1624557659   -2.9153005473
N        0.9374670445   -1.5381737391    0.1208478186
N        0.8188893528   -2.6537362351   -0.6506856914
O       -2.7561109498   -0.5384190209   -3.9863014538
O       -2.8670065790   -0.1639157074   -1.7486614853
S       -0.3707744533   -3.0698988982   -4.5109459257
H       -0.2591018401   -6.6526579249   -3.7915462476
H        0.2371179657   -5.2145179699   -1.6235381689
H       -0.7057045250   -5.1694994117   -5.8672806041
H       -0.5539642231    1.3487705989   -0.4195602603
H        0.2574760895    0.8139209733    1.0691796278
H        1.2214999921    1.4166055222   -0.2961424176
H       -0.2779059750   -0.3949026749   -3.9020394809
H       -0.4505414887    0.8884051164   -2.7297394211
H        1.1440017251   -3.5779747606   -0.3797193077
H       -3.8067525652   -0.3117052940   -1.9414154893
25   

C       -0.2555313253   -5.4380126416   -4.0003943681
C       -0.1126077245   -4.6790513269   -2.7661237316
C       -0.1104118470   -4.6471880075   -5.1106666075
C        0.0582105377   -1.0041059190   -1.9074910288
C        0.3398292724   -2.3406023283   -1.9612229066
C        0.1325320198   -3.3438956784   -2.9927386050
C        0.4917167967   -0.5759484322   -0.5902245774
C       -2.1106334991   -0.2647447835   -2.9049874339
C        0.3750152249    0.7945895107    0.0089271722
C       -0.5933458294   -0.1149003656   -2.9450564178
N        0.9684898913   -1.5968544618    0.0732787790
N        0.8747282051   -2.6797696321   -0.7478975860
O       -2.6548071449   -0.9382260352   -3.7645115471
O       -2.7859414152    0.4097581462   -1.9409642371
S        0.2027502305   -2.9659761450   -4.6950898536
H       -0.4583736956   -6.5029318843   -4.0377891179
H       -0.2070274593   -5.1233316226   -1.7824822322
H       -0.1834494063   -5.0033134606   -6.1317546936
H       -0.4737939851    1.3331038967   -0.4195734743
H        0.2349110013    0.7183516450    1.0910164405
H        1.2907016402    1.3590331706   -0.1853639759
H       -0.2231712539   -0.3445461010   -3.9457136645
H       -0.3418387136    0.9308578407   -2.7527633294
H        1.1987827660   -3.6150719892   -0.5141168181
H       -3.7244286325    0.1892785242   -2.0566494286
25   

C       -0.3044459667   -5.3574869727   -4.0030358423
C       -0.2513760634   -4.5822775835   -2.7714660920
C        0.1189610034   -4.6320516462   -5.0876492913
C        0.0848192950   -0.9704025313   -1.8991108667
C        0.3992661791   -2.2969924972   -1.9443949881
C        0.2026457551   -3.3020727775   -2.9789424208
C        0.5154369917   -0.5232354545   -0.5869974414
C       -2.1300399938   -0.2407979843   -2.7812388230
C        0.4159753946    0.8578815224   -0.0094863456
C       -0.6179437221   -0.1331413733   -2.9454578103
N        1.0377483023   -1.5254095285    0.0726078002
N        0.9749828727   -2.6141193461   -0.7450194134
O       -2.7477047856   -0.9814715400   -3.5285970933
O       -2.7200111219    0.5372978714   -1.8396071824
S        0.5926513949   -2.9929134980   -4.6525641157
H       -0.6440528616   -6.3862315029   -4.0573439640
H       -0.5503534779   -4.9692193514   -1.8041737472
H        0.1562384096   -5.0120350695   -6.1020639662
H       -0.4937757624    0.9355503610    0.5919549234
H        1.2767197553    1.0551261797    0.6357577505
H        0.3823510361    1.6120397462   -0.7984753563
H       -0.3356172384   -0.4486235594   -3.9515717476
H       -0.3285548793    0.9155507044   -2.8494235691
H        1.3346432230   -3.5381375392   -0.5166789731
H       -3.6682171293    0.3297540614   -1.8664764077
25   

C       -0.3666343847   -5.3332098558   -4.0360306021
C       -0.3988800813   -4.5441273569   -2.8122434381
C        0.3017759468   -4.6905635423   -5.0482243705
C        0.0442320787   -1.0231711593   -1.8738615187
C        0.4144036417   -2.3321734013   -1.9144152642
C        0.2384271745   -3.3374744119   -2.9568747610
C        0.4981141880   -0.5410589762   -0.5831567719
C       -2.2094540759   -0.3009732284   -2.6522717969
C        0.3598957466    0.8444054760   -0.0254361936
C       -0.7104600403   -0.2429256531   -2.9260129738
N        1.0866581265   -1.5119780629    0.0688428095
N        1.0454399433   -2.6131347011   -0.7350036433
O       -2.8800819694   -1.1284566865   -3.2475306667
O       -2.7308549408    0.6079430107   -1.7910979296
S        0.9110374363   -3.1131745276   -4.5547314065
H       -0.8225846568   -6.3122856542   -4.1366496495
H       -0.8805437462   -4.8651228665   -1.8955844175
H        0.4398426794   -5.0960513571   -6.0438981529
H       -0.5009436187    0.8816644946    0.6474258786
H        1.2562031219    1.1081257017    0.5429878038
H        0.2146733789    1.5752134273   -0.8239220684
H       -0.5081913380   -0.6448845152   -3.9216229742
H       -0.3882375233    0.8010000741   -2.9264538954
H        1.4479194655   -3.5204060637   -0.5098525698
H       -3.6804731337    0.4141571081   -1.7298261770
25   

C       -1.1496622220   -5.0914305331   -4.3680705552
C       -1.3355006852   -4.2762685126   -3.1753036413
C        0.0960848876   -4.9239167782   -4.9210660557
C       -0.0759908689   -1.2525069606   -1.7352217883
C       -0.0727358126   -2.6112370407   -1.7546113880
C       -0.2230728286   -3.5303678158   -2.8823393920
C        0.1252584033   -0.8923095109   -0.3453422431
C       -1.7335336480    0.0929151110   -3.0152861898
C        0.2243122524    0.4883608613    0.2315483163
C       -0.2705145806   -0.3242646232   -2.9108814352
N        0.2315327189   -1.9773493696    0.3801407139
N        0.1138398266   -3.0380588155   -0.4703214631
O       -2.4886361894   -0.5885506976   -3.6895715481
O       -2.1137913032    1.2300005116   -2.3815461024
S        1.0835100374   -3.7768030735   -4.0191036225
H       -1.9108153789   -5.7484963605   -4.7748823740
H       -2.2496854087   -4.2455130838   -2.5929956193
H        0.4410073935   -5.4311296205   -5.8147172352
H       -0.7388006945    0.7730114051    0.6633221169
H        0.9787194302    0.5077487637    1.0230802645
H        0.4939519220    1.2146021432   -0.5384851951
H        0.0325350186   -0.8167486175   -3.8388567544
H        0.3509333085    0.5671118334   -2.7950444163
H        0.1706959902   -4.0181420363   -0.2013912247
H       -3.0662704411    1.3287450409   -2.5434402228
25   

C       -1.1351709103   -4.8979253157   -4.4607088048
C       -1.3161876470   -4.0350770228   -3.3013379053
C        0.1875239034   -5.0333856619   -4.8047367945
C       -0.0451077734   -1.2805773415   -1.7030235332
C        0.0409160556   -2.6362598419   -1.6980115104
C       -0.1225733426   -3.5723850782   -2.8116490179
C        0.1574027699   -0.8807025276   -0.3249485022
C       -1.8032906112   -0.0160058554   -2.9336717196
C        0.1901115801    0.5165398524    0.2182835661
C       -0.3256892834   -0.3923135351   -2.8916653732
N        0.3297996786   -1.9430874265    0.4207646242
N        0.2551344671   -3.0261930215   -0.4066000802
O       -2.6021093005   -0.8308225816   -3.3677409496
O       -2.1532252714    1.2217707850   -2.5046176681
S        1.2566299066   -4.1259307267   -3.7376274757
H       -1.9535405537   -5.3686183299   -4.9948244239
H       -2.2801946537   -3.7605060072   -2.8860832377
H        0.5435114289   -5.6254914834   -5.6399080779
H       -0.7818131581    0.7612525274    0.6547056924
H        0.9508430352    0.5940694056    1.0001379024
H        0.4135888908    1.2365233930   -0.5722937322
H       -0.0584148075   -0.9047452717   -3.8200161292
H        0.2789915448    0.5162720453   -2.8328914780
H        0.3472457474   -3.9974963947   -0.1162345143
H       -3.1193875382    1.2781770973   -2.5862833182
25   

C       -1.1343832212   -4.8317094485   -4.5417008017
C       -1.2992320040   -3.8926127085   -3.4408285702
C        0.1730955414   -5.2194120892   -4.7014470582
C       -0.0618960688   -1.3166612863   -1.7337482215
C        0.0752670196   -2.6694887443   -1.7163071596
C       -0.1133948575   -3.6243547523   -2.8065492069
C        0.1766936948   -0.8916980831   -0.3687331406
C       -1.8781271889   -0.0460314992   -2.8885922338
C        0.1822232710    0.5130822417    0.1558045864
C       -0.4058040063   -0.4448049264   -2.9192290224
N        0.4138774329   -1.9368247259    0.3830356613
N        0.3474586871   -3.0328222863   -0.4275135627
O       -2.7070178446   -0.8403973022   -3.3033031300
O       -2.1901792514    1.1909309992   -2.4295740342
S        1.2461820053   -4.4653622591   -3.5249730045
H       -1.9515086668   -5.1751474955   -5.1669818598
H       -2.2441068188   -3.4370748648   -3.1634227834
H        0.5167289779   -5.9079042053   -5.4648327387
H       -0.7840257052    0.7344182227    0.6166277667
H        0.9620684650    0.6242321054    0.9144144933
H        0.3611575727    1.2285911063   -0.6500827936
H       -0.1957993069   -0.9743973226   -3.8526802555
H        0.2123421190    0.4566408426   -2.9104872326
H        0.4774544438   -3.9966713550   -0.1269053943
H       -3.1577897199    1.2643993354   -2.4723613867
25   

C       -1.1225798276   -4.7940553760   -4.6099085427
C       -1.2790720414   -3.7806910901   -3.5758467160
C        0.1244634536   -5.3670688293   -4.5902176878
C       -0.1239072014   -1.3233173754   -1.7403987695
C        0.0481214302   -2.6742984023   -1.7347131845
C       -0.1481538487   -3.6357111447   -2.8124791643
C        0.1638511870   -0.8973714304   -0.3844290866
C       -1.9811344567   -0.0210047501   -2.8096190228
C        0.1629549438    0.5048561392    0.1473543774
C       -0.5172030968   -0.4417266868   -2.9046868522
N        0.4624559950   -1.9377780193    0.3511902633
N        0.3895953636   -3.0320217950   -0.4603460692
O       -2.8322343226   -0.7623923761   -3.2735723667
O       -2.2607568434    1.1830910549   -2.2532644821
S        1.1479569273   -4.7021112598   -3.3202999035
H       -1.9024503086   -5.0582212552   -5.3160991774
H       -2.1834830863   -3.2013871868   -3.4280353714
H        0.4523379029   -6.1396711074   -5.2761428213
H       -0.7907731585    0.7071577807    0.6417694890
H        0.9662717055    0.6263112174    0.8794501438
H        0.3020803481    1.2273832866   -0.6601184572
H       -0.3521984850   -0.9661833762   -3.8498967558
H        0.1108326140    0.4528063479   -2.9192734927
H        0.5592031872   -3.9926926699   -0.1694456275
H       -3.2273629490    1.2775039535   -2.2734511558
25   

C       -1.0723153585   -4.7318867183   -4.7064166537
C       -1.2054098828   -3.6606369976   -3.7292441947
C        0.0727987993   -5.4638463488   -4.5203958403
C       -0.1526540486   -1.3220134328   -1.7397723536
C        0.0384130219   -2.6726883389   -1.7614108733
C       -0.1577160718   -3.6249228291   -2.8423469620
C        0.1879444401   -0.9110734961   -0.3904802767
C       -2.0466278287   -0.0059060390   -2.7392074479
C        0.1942610274    0.4821615839    0.1651618343
C       -0.5814401904   -0.4134357281   -2.8718855863
N        0.5384254026   -1.9557009259    0.3146758316
N        0.4490549507   -3.0383987112   -0.5094492126
O       -2.8916020609   -0.6748855459   -3.3113545152
O       -2.3324577965    1.1175951667   -2.0369476685
S        1.0243376134   -4.8811960863   -3.1584293583
H       -1.7967527561   -4.9242194691   -5.4905945797
H       -2.0432619248   -2.9748043692   -3.7035783106
H        0.3670681615   -6.3052080162   -5.1372076055
H       -0.7458834528    0.6699156557    0.6903321315
H        1.0179852608    0.5968574456    0.8753705679
H        0.3054660872    1.2196382027   -0.6329475910
H       -0.4247416035   -0.9063499985   -3.8350865152
H        0.0361858409    0.4883264842   -2.8733867363
H        0.6531431116   -3.9989554157   -0.2412186143
H       -3.2986378263    1.2162444154   -2.0575113580
25   

C       -0.9745614057   -4.6716617099   -4.7682072172
C       -1.0817157606   -3.5435160295   -3.8542175646
C        0.0271160053   -5.5357307411   -4.4092313148
C       -0.1920500455   -1.2888781767   -1.7253318923
C        0.0185843682   -2.6392502899   -1.7586590364
C       -0.1543661962   -3.5911959605   -2.8407439155
C        0.1744129006   -0.8782501688   -0.3817128402
C       -2.1211208639   -0.0185823897   -2.7260687517
C        0.1684108072    0.5098878403    0.1877920938
C       -0.6381990659   -0.3639566992   -2.8387974845
N        0.5672378256   -1.9178101127    0.3069942455
N        0.4794530155   -2.9966102015   -0.5210043851
O       -2.9136134849   -0.6147071206   -3.4369952588
O       -2.4782150406    0.9815371071   -1.8838933556
S        0.8702058162   -5.0100136487   -2.9568834712
H       -1.6170784879   -4.8098340805   -5.6312547576
H       -1.8279200884   -2.7673832299   -3.9613973315
H        0.2777734671   -6.4403466176   -4.9512645452
H       -0.7646006061    0.6763964405    0.7324730026
H        1.0034061170    0.6314993163    0.8835634288
H        0.2520864202    1.2582784007   -0.6032080521
H       -0.4346897920   -0.8138737722   -3.8138186162
H       -0.0615589839    0.5634134558   -2.7991635517
H        0.7176491238   -3.9524427903   -0.2643195917
H       -3.4449818363    1.0570439081   -1.9405677178
25   

C       -0.8422365143   -4.6508888433   -4.8157259954
C       -0.8958469666   -3.4759265970   -3.9580923989
C       -0.0297251841   -5.6278048822   -4.3052013758
C       -0.1907393623   -1.2908836092   -1.7053941085
C        0.0450753445   -2.6406706168   -1.7512960624
C       -0.1159560001   -3.5971241929   -2.8306256015
C        0.2407883536   -0.8700544088   -0.3835194460
C       -2.1895949645   -0.1630321718   -2.7660459967
C        0.2087451594    0.5107780743    0.2034442638
C       -0.6734326230   -0.3495644410   -2.7912108203
N        0.6793059868   -1.9004864384    0.2885081642
N        0.5616383153   -2.9819931210   -0.5301132305
O       -2.8462924104   -0.6203063383   -3.6872163652
O       -2.7267357397    0.5572729615   -1.7513392017
S        0.6943266646   -5.1524908094   -2.7749291295
H       -1.3890739706   -4.7402938554   -5.7483501909
H       -1.5110957511   -2.6194283593   -4.1929910636
H        0.1502941866   -6.5849607910   -4.7810315545
H       -0.4997973951    1.1488740505   -0.3285661287
H       -0.0811849798    0.4597900502    1.2566473305
H        1.2046183193    0.9571843176    0.1405094726
H       -0.3538857226   -0.7068150026   -3.7732462901
H       -0.2078507253    0.6300530013   -2.6567351731
H        0.8274504957   -3.9325223519   -0.2810390419
H       -3.6868565227    0.5679857113   -1.8968463181
25   

C       -0.7379685075   -4.6495719296   -4.9994697984
C       -0.6672555845   -3.4507611978   -4.1768331878
C       -0.2095918332   -5.7429933562   -4.3684319334
C       -0.0999796714   -1.3715077415   -1.7886449502
C        0.1230669007   -2.7236446444   -1.8674474981
C       -0.0799948880   -3.6698881101   -2.9498637425
C        0.3598190433   -0.9790598323   -0.4680922334
C       -2.1454076360   -0.3540984539   -2.8607593507
C        0.3126407106    0.3860269067    0.1536621827
C       -0.6198764575   -0.3949402085   -2.8247208167
N        0.8179739516   -2.0215476818    0.1697586067
N        0.6795215568   -3.0844241560   -0.6690756187
O       -2.7125325859   -0.7371726186   -3.8711337964
O       -2.7934225681    0.1606758658   -1.7870453684
S        0.3894535653   -5.3516370482   -2.7632071763
H       -1.1673793804   -4.6708508815   -5.9954363896
H       -1.0634973708   -2.5061915476   -4.5186810083
H       -0.1644878792   -6.7366564841   -4.7991946748
H       -0.4966441824    0.9813941557   -0.2757792209
H        0.1530412825    0.2990111660    1.2321639479
H        1.2629861682    0.8988044867   -0.0167846806
H       -0.2192121123   -0.6357699764   -3.8116262749
H       -0.2608170317    0.6111191189   -2.5951595239
H        0.9538890877   -4.0390887740   -0.4465643990
H       -3.7431041966    0.0986865460   -1.9798290604
25   

C       -0.7955640914   -4.5213382283   -4.9197213597
C       -0.5091683164   -3.3103864572   -4.1644483757
C       -0.6848583191   -5.6495124014   -4.1516003405
C       -0.0479715308   -1.2428994486   -1.7475809494
C        0.1362986170   -2.5998858606   -1.8109688338
C       -0.1963372879   -3.5602435353   -2.8467708235
C        0.4673710547   -0.8443750960   -0.4501365463
C       -2.1500975632   -0.5678206918   -2.9891129678
C        0.4613525556    0.5284432211    0.1554469167
C       -0.6628548553   -0.3019482211   -2.7653330199
N        0.9190531463   -1.8905522796    0.1879876251
N        0.7181172877   -2.9630919081   -0.6264854747
O       -2.5488261745   -0.6499975893   -4.1398626214
O       -2.9564101912   -0.6853590338   -1.9052220997
S       -0.2327103272   -5.2787351269   -2.4934267885
H       -1.0671760600   -4.5250448322   -5.9699788274
H       -0.5408892157   -2.3301566879   -4.6195570601
H       -0.8561622346   -6.6564612880   -4.5144829145
H       -0.4351720704    1.0765652797   -0.1447728875
H        0.4804424545    0.4564772816    1.2468585183
H        1.3458084605    1.0795328743   -0.1748849030
H       -0.1210040965   -0.3749197535   -3.7109909496
H       -0.5571291957    0.7323096336   -2.4316757116
H        0.9632133585   -3.9235455299   -0.3951239185
H       -3.8465791425   -0.8808125195   -2.2392051021
25   

C       -0.7846861175   -4.4262082686   -4.9211186064
C       -0.3473577360   -3.2566318477   -4.1727973692
C       -0.9794339072   -5.5156824062   -4.1120391694
C       -0.0201826998   -1.2073631679   -1.7206954143
C        0.1613939949   -2.5610809937   -1.7944851607
C       -0.2312951121   -3.5034631077   -2.8252391934
C        0.5416663776   -0.8180563905   -0.4401658777
C       -2.1427986879   -0.7532494567   -3.0496923363
C        0.6210819446    0.5615532096    0.1438173947
C       -0.7268483317   -0.2931136977   -2.7039895905
N        1.0270472609   -1.8679099936    0.1693389936
N        0.8019533340   -2.9364345373   -0.6457055590
O       -2.4839692047   -0.7058245784   -4.2208125351
O       -2.9498239492   -1.1888568711   -2.0505852496
S       -0.6409137237   -5.1594570859   -2.4221238179
H       -0.9409344803   -4.4300985653   -5.9946042028
H       -0.1373700918   -2.3013933397   -4.6382010199
H       -1.3067877769   -6.4873944498   -4.4635756977
H       -0.2791812306    0.7607522437    0.7315424561
H        1.4910015635    0.6393283602    0.8023516109
H        0.7056014057    1.3124683047   -0.6451429782
H       -0.1329066337   -0.2155722666   -3.6181544362
H       -0.8062807072    0.7126336264   -2.2864184523
H        1.0612656167   -3.8979176852   -0.4350924041
H       -3.7786682236   -1.4745857060   -2.4666969181
25   

C       -0.7131834582   -4.4174379886   -4.9412010371
C       -0.1882670964   -3.2798407270   -4.1995795228
C       -1.1321704828   -5.4272851286   -4.1123044304
C       -0.0519788073   -1.1804801237   -1.7495003685
C        0.1718113997   -2.5252711840   -1.8187964623
C       -0.2252845715   -3.4783871825   -2.8413467857
C        0.5495097547   -0.7630839353   -0.4966513092
C       -2.1869795563   -0.8869905248   -3.1139531971
C        0.6012276241    0.6229466546    0.0744274426
C       -0.8247805211   -0.3123981846   -2.7248547935
N        1.1047809988   -1.7904250502    0.0935599703
N        0.8860729557   -2.8729405894   -0.7059712785
O       -2.5059868309   -0.8394203052   -4.2913356123
O       -2.9734659505   -1.4185818976   -2.1453543221
S       -0.9040541626   -5.0346939348   -2.4109173784
H       -0.7717183995   -4.4555374390   -6.0237321732
H        0.1794687308   -2.3738373053   -4.6673738004
H       -1.5595113017   -6.3621126189   -4.4564216907
H       -0.2561678046    0.7770385087    0.7352094716
H        1.5173113645    0.7523815871    0.6578907599
H        0.5777346300    1.3714267601   -0.7209914515
H       -0.2245079312   -0.1662398849   -3.6267078075
H       -0.9998612248    0.6722948762   -2.2862507403
H        1.1946094476   -3.8223027468   -0.5069573321
H       -3.7605409922   -1.7710843909   -2.5902632319
25   

C       -0.6553718196   -4.4244883298   -4.9194946605
C       -0.0500939864   -3.3393031364   -4.1603898422
C       -1.2934481511   -5.3304407000   -4.1094873565
C       -0.0851683005   -1.1885585742   -1.7047037609
C        0.1652545316   -2.5261101571   -1.7853742145
C       -0.2430742693   -3.4791156316   -2.8092347801
C        0.5648868235   -0.7592381172   -0.4808630277
C       -2.2339871321   -0.9823997449   -3.0677930313
C        0.6093441079    0.6272998736    0.0891764668
C       -0.9081824752   -0.3418129082   -2.6571558882
N        1.1787187550   -1.7729840011    0.0753123039
N        0.9510404605   -2.8592106317   -0.7174584571
O       -2.5339013266   -0.9569739149   -4.2508763032
O       -3.0145826048   -1.5395473141   -2.1089827715
S       -1.1802111809   -4.9024618420   -2.4046294485
H       -0.6142777190   -4.4996499498   -6.0008585344
H        0.4752476486   -2.5035017997   -4.6086133402
H       -1.8143703312   -6.2101576779   -4.4695378514
H       -0.2069540368    0.7534129983    0.8055251986
H        1.5573382080    0.7858803231    0.6112327784
H        0.5089696275    1.3747526926   -0.7012419172
H       -0.3164039392   -0.1401642969   -3.5541403626
H       -1.1386352061    0.6192329354   -2.1921304325
H        1.2981785166   -3.7998130514   -0.5416489538
H       -3.7746161492   -1.9324560303   -2.5668436799
25   

C        0.3447753346   -4.9054934304   -4.5163983406
C        0.7839173310   -3.9109157207   -3.5472787456
C       -0.9431403152   -5.3199962572   -4.2835813988
C       -0.0652008126   -1.2857775701   -1.6174281887
C       -0.0743647676   -2.6433029655   -1.5445381946
C       -0.1865183346   -3.6273783162   -2.6204938810
C        0.0865208477   -0.8327895836   -0.2483332832
C       -1.6644024802   -0.0317091404   -3.0600359550
C        0.1711947207    0.5830711353    0.2386332948
C       -0.2078762039   -0.4374979201   -2.8597990403
N        0.1604209627   -1.8664577967    0.5519809026
N        0.0607877156   -2.9818403793   -0.2278357444
O       -2.3550392307   -0.6922185321   -3.8185107163
O       -2.1049537512    1.0804303800   -2.4207786419
S       -1.6624047406   -4.5246226429   -2.8858655048
H        0.9612403802   -5.2699560284   -5.3310539999
H        1.7591755985   -3.4374160448   -3.5569856216
H       -1.4699896757   -6.0492941885   -4.8880664802
H       -0.8070684854    0.8989601648    0.6106842304
H        0.8927387232    0.6529631024    1.0574353140
H        0.4754864590    1.2555027375   -0.5664620061
H        0.1381739627   -0.9887008584   -3.7383629685
H        0.4052868107    0.4628720331   -2.7745357936
H        0.0760546405   -3.9415366883    0.1113842189
H       -3.0442468179    1.1738072398   -2.6494805991
25   

C        0.4226286332   -5.0569383004   -4.4138529940
C        0.8776301234   -4.0990863780   -3.4153908396
C       -0.9374603802   -5.2395938275   -4.3719159118
C       -0.0961125932   -1.2652180155   -1.6427976142
C       -0.0346463348   -2.6213253610   -1.5858038933
C       -0.1577080707   -3.6046496031   -2.6641894282
C        0.0887819369   -0.8197982053   -0.2754141245
C       -1.7898163828   -0.0315028248   -2.9977242675
C        0.1312569454    0.5939664149    0.2226950767
C       -0.3189922286   -0.4150540250   -2.8717292288
N        0.2410034547   -1.8572824174    0.5092853297
N        0.1620425807   -2.9684091474   -0.2791674586
O       -2.5100271666   -0.7078278260   -3.7135562757
O       -2.2119386631    1.0801792382   -2.3454341502
S       -1.7084757157   -4.2621263553   -3.1254285048
H        1.0810877991   -5.5627551917   -5.1118191646
H        1.9115671971   -3.8017262291   -3.2808205810
H       -1.4869136668   -5.9035608259   -5.0292739355
H       -0.8451727750    0.8649677647    0.6329180623
H        0.8787769494    0.6875625692    1.0154104935
H        0.3772972576    1.2851225459   -0.5865420649
H       -0.0083531932   -0.9583513676   -3.7686341135
H        0.2837741959    0.4945712922   -2.8136900120
H        0.2253348677   -3.9300751088    0.0486606202
H       -3.1625636924    1.1600176124   -2.5277075891
25   

C        0.4695766264   -5.1489257041   -4.3321068391
C        0.9379921579   -4.2419730989   -3.2931354175
C       -0.8892578107   -5.0711587561   -4.5110094961
C       -0.0613156525   -1.1993715443   -1.6508972520
C        0.0518342948   -2.5536687109   -1.6459483201
C       -0.0855882678   -3.5146572122   -2.7404103529
C        0.1522379185   -0.7975987288   -0.2740818777
C       -1.8047666674    0.1401000637   -2.8445501713
C        0.1730455009    0.5989348643    0.2715796227
C       -0.3463709732   -0.3079346726   -2.8373828528
N        0.3598193452   -1.8566617966    0.4680336246
N        0.2913629935   -2.9412066502   -0.3573677540
O       -2.6261622207   -0.5546446585   -3.4197532453
O       -2.1072584974    1.3216578205   -2.2518276642
S       -1.6426438955   -3.8998472989   -3.4323913240
H        1.1187297280   -5.8081937720   -4.8983265187
H        1.9743076880   -4.1482896454   -2.9884106403
H       -1.4471134100   -5.6564914644   -5.2328750774
H       -0.7946972296    0.8275172228    0.7257708711
H        0.9464778760    0.6873340302    1.0396813423
H        0.3704213531    1.3236196583   -0.5217119524
H       -0.1280516674   -0.8376226242   -3.7689302200
H        0.2989756897    0.5735620798   -2.8038290066
H        0.3811757424   -3.9118508203   -0.0642898455
H       -3.0669013285    1.4372707567   -2.3478155444
25   

C        0.4826324714   -5.3084098169   -4.2436140990
C        0.9177381454   -4.4134997503   -3.1801247662
C       -0.8154475125   -5.0701207581   -4.6198556540
C       -0.1436352772   -1.2049336933   -1.7325199446
C        0.0481074229   -2.5516228068   -1.7314263656
C       -0.0657976036   -3.5310813951   -2.8070151948
C        0.1038558912   -0.7878719048   -0.3656111410
C       -1.9782945071    0.0967546332   -2.8384656570
C        0.0757610250    0.6098626340    0.1768712169
C       -0.5127553140   -0.3236114737   -2.9041501848
N        0.4022002421   -1.8306968154    0.3681811109
N        0.3619426056   -2.9196159270   -0.4526763577
O       -2.8173278535   -0.6276801811   -3.3475510963
O       -2.2703597623    1.2877084093   -2.2597822274
S       -1.5489598600   -3.7569852149   -3.7037401660
H        1.1108245653   -6.0741125733   -4.6860541013
H        1.9055979417   -4.4382826651   -2.7341209803
H       -1.3407376830   -5.6191230888   -5.3928947638
H       -0.8913036649    0.7984001552    0.6503567392
H        0.8606748755    0.7341068452    0.9282238062
H        0.2258160770    1.3397386830   -0.6220469286
H       -0.3303411228   -0.8491818725   -3.8455038315
H        0.1153376336    0.5709761568   -2.9057374159
H        0.5116658732   -3.8827990281   -0.1599996479
H       -3.2358864257    1.3835330175   -2.3059660918
25   

C        0.4290000917   -5.3835370425   -4.1580187946
C        0.8319399505   -4.5309408434   -3.0482827168
C       -0.7595037575   -4.9813955329   -4.7124289183
C       -0.1695505533   -1.1865959391   -1.7345994414
C        0.0471562907   -2.5318163785   -1.7475490235
C       -0.0642518194   -3.5151654338   -2.8149111295
C        0.1262564890   -0.7696860899   -0.3766767171
C       -2.0532872954    0.1034451579   -2.7759947303
C        0.0955290993    0.6245182874    0.1755275822
C       -0.5823388313   -0.2899304369   -2.8809036686
N        0.4781615108   -1.8076751296    0.3389807215
N        0.4271625913   -2.8934135373   -0.4843544963
O       -2.8904862802   -0.6200510525   -3.2892607024
O       -2.3530444177    1.2734380773   -2.1598062830
S       -1.4246197594   -3.5612485323   -3.9121438484
H        1.0016449741   -6.2365668447   -4.5060353487
H        1.7416985784   -4.6782965440   -2.4777288190
H       -1.2438903206   -5.4721072729   -5.5487824340
H       -0.8577481037    0.7956107883    0.6823528287
H        0.9034317661    0.7563375489    0.9008070719
H        0.2079191109    1.3620694209   -0.6224175635
H       -0.4065232950   -0.7882678269   -3.8376718942
H        0.0281488200    0.6166859860   -2.8774931100
H        0.6075941153   -3.8533742687   -0.1993932721
H       -3.3206555195    1.3547113142   -2.1856799331
25   

C        0.3499910124   -5.5242396680   -4.0281359006
C        0.7156331627   -4.7020656724   -2.8833180009
C       -0.6915272302   -4.9853358483   -4.7381272903
C       -0.1709534165   -1.2278030055   -1.7090066506
C        0.0586208840   -2.5741769656   -1.7235764376
C       -0.0622613307   -3.5717850708   -2.7735952807
C        0.1842505522   -0.7975554969   -0.3684268023
C       -2.1184960018   -0.0141081004   -2.7294804658
C        0.1622684098    0.5973250560    0.1839621773
C       -0.6276415560   -0.3233460714   -2.8341785924
N        0.5869674502   -1.8244128196    0.3348422635
N        0.5128497887   -2.9150700743   -0.4784448804
O       -2.8989630604   -0.6568418655   -3.4118742655
O       -2.4966838218    1.0093055193   -1.9242461157
S       -1.2585428709   -3.4707282767   -4.0443674109
H        0.8447537482   -6.4533027431   -4.2903622097
H        1.5234387177   -4.9541336670   -2.2065976462
H       -1.1244934528   -5.4299229669   -5.6268345245
H       -0.7720447752    0.7595413341    0.7276693035
H        0.9966090338    0.7374133573    0.8770719014
H        0.2362460644    1.3368642316   -0.6162711453
H       -0.4109432518   -0.7762417854   -3.8044655644
H       -0.0727411927    0.6172872552   -2.8000567267
H        0.7255558114   -3.8681222056   -0.1939175150
H       -3.4651549537    1.0568530750   -1.9799331362
25   

C        0.2483403603   -5.5580683961   -3.9438313275
C        0.5598020845   -4.7613130579   -2.7656161768
C       -0.5826551784   -4.8959799180   -4.8088602723
C       -0.1655684230   -1.1641781866   -1.7355232880
C        0.0805820470   -2.5119024531   -1.7486288515
C       -0.0484109165   -3.5247645405   -2.7823181867
C        0.2565618831   -0.7126322603   -0.4206933681
C       -2.1823108300   -0.0900722485   -2.8010825701
C        0.2196146791    0.6811461708    0.1344906751
C       -0.6641875350   -0.2516736612   -2.8384349107
N        0.6918607237   -1.7269030206    0.2787656566
N        0.5803054097   -2.8282187828   -0.5133892106
O       -2.8507610397   -0.6446062279   -3.6575510640
O       -2.7094559744    0.7228137054   -1.8522769849
S       -1.0115589043   -3.2936300283   -4.2235161091
H        0.6313512577   -6.5577737918   -4.1187630360
H        1.2142594997   -5.1135127421   -1.9778629294
H       -0.9409493093   -5.3005985524   -5.7484453134
H       -0.4890049757    1.3051813196   -0.4138252694
H       -0.0727695941    0.6537303916    1.1878831819
H        1.2145453719    1.1284965719    0.0636485287
H       -0.3516721382   -0.6230417232   -3.8168755740
H       -0.2111690091    0.7367050770   -2.7279376236
H        0.8162815362   -3.7734650039   -0.2229343495
H       -3.6720818843    0.7036459876   -1.9782106523
25   

C       -0.0648610875   -5.5860442289   -3.8258175337
C        0.2704507828   -4.7888433138   -2.6543593642
C       -0.6406838919   -4.8328146323   -4.8148302083
C       -0.1093275390   -1.0691088657   -1.8209781135
C        0.1480848970   -2.4163602019   -1.8128005747
C       -0.0644025025   -3.4598964839   -2.8006841530
C        0.3577097698   -0.5803294966   -0.5365143510
C       -2.2259556309   -0.2022179136   -2.9028542513
C        0.2743367143    0.8205817630   -0.0054737819
C       -0.6986637641   -0.1858311720   -2.9045403432
N        0.8473960481   -1.5685533560    0.1632240761
N        0.7210570988   -2.6890629221   -0.5991937953
O       -2.8016591826   -0.3416792674   -3.9696038031
O       -2.8701063255   -0.0368767997   -1.7201176579
S       -0.7934678379   -3.1411661547   -4.3581899463
H        0.1194978096   -6.6519431488   -3.9072174799
H        0.7346321138   -5.2142252691   -1.7734964233
H       -0.9688619551   -5.2219426600   -5.7718526317
H       -0.5742720541    1.3505964594   -0.4449385362
H        0.1537457910    0.8009599639    1.0814273782
H        1.1952845391    1.3587924601   -0.2445719127
H       -0.3208572768   -0.4825923877   -3.8851662143
H       -0.3738947658    0.8463314360   -2.7551827968
H        1.0139779715   -3.6171753015   -0.3065507795
H       -3.8199845251   -0.0928822742   -1.9117350332
