29

C      1.97946    1.19433    1.66347
C      0.80616    0.71303    1.06870
C      1.96229    1.67323    2.98075
C     -0.40000    0.70440    1.78282
C      0.76120    1.66219    3.68928
C     -0.41549    1.18155    3.09304
C     -1.59504   -0.65215    6.54089
C      0.47545    2.12694    5.10311
C     -1.57240    1.28903    4.06398
C     -2.82509   -2.29877    7.33542
C     -3.61778   -0.97280    7.46571
C     -0.86474    1.43153    5.44083
N     -1.60814   -1.93389    6.59784
N     -0.57579    0.13100    6.06180
O     -2.66357    0.04345    7.05458
H      2.91007    1.18944    1.10163
H      0.83375    0.33736    0.04897
H      2.87665    2.04039    3.44196
H     -1.30753    0.32272    1.32009
H      1.25826    1.87405    5.82411
H      0.34694    3.21646    5.12637
H     -2.16931    2.18639    3.85220
H     -2.25222    0.43217    4.03950
H     -2.56284   -2.71638    8.31583
H     -3.39096   -3.06322    6.79300
H     -4.47731   -0.91753    6.79015
H     -3.93942   -0.73760    8.48244
H     -1.46223    2.00400    6.14949
H      0.10899   -0.43280    5.56690
