30   

C       -1.4855530457    0.9633113273    0.9074093301
C       -1.2342007220   -0.2558297443    1.5396143510
C       -0.5038374185    1.5384498256    0.0988300396
C        5.5528217379    1.2263734474   -1.2597259733
C       -0.0016993567   -0.8969106170    1.3688503563
C        0.7284224448    0.8984003912   -0.0725547525
C        5.1995588992    0.0114146657   -1.8384437860
C        4.8896434165    1.6546223073   -0.1147037636
C        1.0067420072   -0.3261700446    0.5726806518
C        3.4642495892   -0.3164043582   -0.1651246874
C        4.1827584709   -0.7788281876   -1.2958048255
C        3.8574768015    0.8967231686    0.4420014316
C        2.2913810884   -1.0575555883    0.3842140039
C        3.8258813152   -3.1611162113   -1.1473655964
C        3.5596675688   -3.1146593746    0.3597725968
N        2.3391948964   -2.3410120801    0.6751532141
N        3.9382208172   -2.0141790115   -1.8969271089
O        3.9824183401   -4.2219816212   -1.7313983074
F        3.2553732155    1.3459908782    1.5679148360
H       -2.4413766604    1.4578627173    1.0392177561
H       -1.9961244835   -0.7102041221    2.1627373477
H       -0.6987333421    2.4796766088   -0.4025089178
H        6.3486863755    1.8260420969   -1.6892110009
H        0.1593411500   -1.8454735448    1.8702454562
H        1.4600502825    1.3602402051   -0.7253779468
H        5.7387380189   -0.3301663396   -2.7145634405
H        5.1700587115    2.5884111544    0.3581293832
H        3.4376117619   -4.1413236437    0.7159793157
H        4.4286584795   -2.6892182569    0.8695859229
H        4.2578103337   -2.1995718263   -2.8389107431
30   

C       -1.4481472628    1.0160581753    0.9389749166
C       -1.1305173086   -0.1086345231    1.7043227722
C       -0.5606330714    1.4584460356   -0.0445828044
C        5.5529553368    1.2403542508   -1.1687248838
C        0.0729570879   -0.7897681393    1.4875012855
C        0.6423878635    0.7775546000   -0.2608501267
C        5.2415651830    0.0297330149   -1.7791355273
C        4.8294881196    1.6471665773   -0.0531930834
C        0.9777853201   -0.3570938044    0.5053286860
C        3.4370081711   -0.3438618499   -0.1901524682
C        4.2096858203   -0.7796144803   -1.2961762712
C        3.7816624972    0.8705018756    0.4451036663
C        2.2481215831   -1.1034158293    0.2910800637
C        3.8354730303   -3.1681699742   -1.2356257573
C        3.4984640662   -3.1686260208    0.2571724070
N        2.2728055535   -2.3938218368    0.5474613109
N        3.9980003624   -1.9995705075   -1.9404615706
O        4.0097441655   -4.2109522527   -1.8465128648
F        3.1218364041    1.3033596704    1.5447840245
H       -2.3813453996    1.5420002713    1.1064836133
H       -1.8174668636   -0.4569174572    2.4672234408
H       -0.8052333092    2.3285256427   -0.6431961762
H        6.3606837025    1.8549996689   -1.5524181426
H        0.2992792913   -1.6619234949    2.0919534675
H        1.3131906859    1.1318994878   -1.0357435619
H        5.8234557135   -0.2917158015   -2.6353117128
H        5.0738009339    2.5793594343    0.4422585332
H        3.3517350209   -4.2054412308    0.5723450040
H        4.3471902982   -2.7699104512    0.8199380157
H        4.3615158621   -2.1586894532   -2.8712817153
30   

C       -1.4083003995    1.0519765073    0.9471682930
C       -0.9995011673    0.0428530347    1.8234322588
C       -0.6376930395    1.3460962338   -0.1807441098
C        5.5647308523    1.2493214227   -1.0696654379
C        0.1766908086   -0.6726767159    1.5705439685
C        0.5379506572    0.6300358659   -0.4317120165
C        5.2886202107    0.0491158880   -1.7159714806
C        4.7894323263    1.6307016252    0.0193161309
C        0.9550072189   -0.3946449240    0.4381513116
C        3.4220056168   -0.3697718904   -0.2112912901
C        4.2425511511   -0.7762432700   -1.2943900296
C        3.7269162375    0.8380042403    0.4575766805
C        2.2192823203   -1.1462883211    0.2003763477
C        3.8576594875   -3.1672527854   -1.3257515915
C        3.4579200319   -3.2161271234    0.1501086619
N        2.2272525084   -2.4424563058    0.4207542753
N        4.0610641068   -1.9774239074   -1.9822649321
O        4.0498735049   -4.1899588123   -1.9644997326
F        3.0181786952    1.2500953307    1.5344943724
H       -2.3199469886    1.6053329511    1.1426475586
H       -1.5932604943   -0.1871594978    2.7007671026
H       -0.9503707515    2.1295222437   -0.8616816864
H        6.3834771312    1.8768180221   -1.4062735455
H        0.4847344465   -1.4525510947    2.2590364065
H        1.1288757871    0.8689975318   -1.3092617592
H        5.9079684084   -0.2502843740   -2.5536479832
H        5.0035829620    2.5560270385    0.5408756282
H        3.2918774376   -4.2621148688    0.4225347395
H        4.2857019680   -2.8444058398    0.7604988335
H        4.4643155296   -2.1086761747   -2.9010089896
30   

C       -1.3749909808    1.0753419327    0.9321678630
C       -0.8517338130    0.2231170030    1.9088088792
C       -0.7366390033    1.1868592367   -0.3060918022
C        5.5859634942    1.2531381725   -0.9537089445
C        0.3055413916   -0.5188820414    1.6451010390
C        0.4201461460    0.4437716698   -0.5663866512
C        5.3295582816    0.0717998560   -1.6408832677
C        4.7788198559    1.6039207751    0.1219381186
C        0.9461565219   -0.4278208822    0.4029578978
C        3.4219240389   -0.3918800853   -0.2007514707
C        4.2726248115   -0.7653474642   -1.2731005133
C        3.7051085588    0.7991638205    0.5080040552
C        2.2093964419   -1.1829946519    0.1494472314
C        3.8784185865   -3.1540312513   -1.4025579439
C        3.4351540172   -3.2566947734    0.0576974633
N        2.2026299049   -2.4849269671    0.3243505788
N        4.1089466904   -1.9419006721   -2.0069852495
O        4.0821851933   -4.1528158685   -2.0746648560
F        2.9681202163    1.1846604288    1.5753760610
H       -2.2715780668    1.6499703796    1.1357354000
H       -1.3409663487    0.1369029082    2.8723201648
H       -1.1361760721    1.8505292302   -1.0644653585
H        6.4129627278    1.8903840376   -1.2492813994
H        0.7087646396   -1.1748587370    2.4092050184
H        0.9144581958    0.5420139253   -1.5268037415
H        5.9720396218   -0.2026987882   -2.4696048246
H        4.9760850478    2.5152157666    0.6739332030
H        3.2544569980   -4.3111670278    0.2842931730
H        4.2474762964   -2.9154310547    0.7054623608
H        4.5384377102   -2.0417451889   -2.9177682391
30   

C       -1.3919342081    1.0865961356    0.8892229349
C       -0.7310662544    0.4669438560    1.9533964222
C       -0.8890008872    0.9580192006   -0.4080658447
C        5.6274629397    1.2245964265   -0.8276760063
C        0.4282221942   -0.2815938622    1.7183203077
C        0.2703140171    0.2087223543   -0.6375966384
C        5.3444063596    0.0819235969   -1.5668530467
C        4.8311519498    1.5415343637    0.2658612996
C        0.9367403781   -0.4283160278    0.4227237435
C        3.4308166150   -0.4093865093   -0.1413538925
C        4.2714518603   -0.7492509003   -1.2336722902
C        3.7418100356    0.7425767495    0.6190893648
C        2.2006859716   -1.1926485338    0.1667090963
C        3.8311810629   -3.1210862363   -1.4770742132
C        3.3799269018   -3.2849406794   -0.0250649910
N        2.1620178065   -2.5008177354    0.2701119906
N        4.0822523740   -1.8855701667   -2.0230232660
O        4.0179700018   -4.0899095231   -2.1963175205
F        3.0206461340    1.0966906566    1.7065885748
H       -2.2905141468    1.6658075487    1.0697272072
H       -1.1153977000    0.5658170738    2.9621764655
H       -1.3960026468    1.4390014409   -1.2368348425
H        6.4661175560    1.8580568586   -1.0973776542
H        0.9372330434   -0.7579325180    2.5492112290
H        0.6579212483    0.1173687142   -1.6464658860
H        5.9780102049   -0.1666998691   -2.4104282447
H        5.0490018372    2.4224733632    0.8579226741
H        3.1759080997   -4.3449828561    0.1498545962
H        4.1956726985   -2.9915617032    0.6415486025
H        4.5097179129   -1.9496807269   -2.9379685973
30   

C       -1.2749119472    0.7195866006    0.6763959912
C       -0.4807069489    0.4407267129    1.7910272235
C       -0.8366857839    0.3437971146   -0.5949574765
C        5.8629416929    1.3333096084   -0.7000759115
C        0.7486887373   -0.2099599020    1.6321441983
C        0.3933122698   -0.3055643077   -0.7464280203
C        5.5994287901    0.2441774343   -1.5210321356
C        5.0835519827    1.5337880311    0.4315599495
C        1.2052906993   -0.5911517019    0.3652192855
C        3.7296417080   -0.4215961943   -0.1028574088
C        4.5609162112   -0.6455002902   -1.2335327436
C        4.0275420378    0.6743743681    0.7421891999
C        2.5272318271   -1.2719643713    0.1447278193
C        4.2256426577   -3.0085580060   -1.6419890456
C        3.7892622031   -3.2941860031   -0.2044277592
N        2.5377096642   -2.5846375282    0.1340799686
N        4.3994644148   -1.7260829141   -2.1033906671
O        4.4562771813   -3.9142579591   -2.4277213811
F        3.3335394663    0.9184411286    1.8738967914
H       -2.2284564338    1.2211113061    0.7978623132
H       -0.8185058029    0.7235478358    2.7815121077
H       -1.4492984747    0.5528576659   -1.4646093807
H        6.6746684390    2.0138497718   -0.9352606426
H        1.3423298896   -0.4372427078    2.5104424321
H        0.7251364756   -0.5954600813   -1.7376579426
H        6.2221808399    0.0833896363   -2.3935082257
H        5.2892896816    2.3703100974    1.0887964196
H        3.6314020171   -4.3715871822   -0.1035498825
H        4.5920211196   -3.0104845779    0.4818596457
H        4.8163969029   -1.7047627453   -3.0251542926
30   

C       -1.3049784062    0.6957007097    0.5624234925
C       -0.4302313550    0.7249009346    1.6493904738
C       -0.9338774597    0.0203424736   -0.5998860834
C        5.9231058360    1.3023423260   -0.5800185332
C        0.8148485308    0.0883425282    1.5708807315
C        0.3114062514   -0.6120380195   -0.6718829202
C        5.5591251501    0.3100688120   -1.4807041029
C        5.2455753898    1.4015832527    0.6279038170
C        1.2153879045   -0.5823349093    0.4074991836
C        3.7654880521   -0.4308156642    0.0001048458
C        4.5120781302   -0.5715191482   -1.2009232585
C        4.1845273028    0.5460801901    0.9339403239
C        2.5418808964   -1.2651962186    0.2249849833
C        4.1329403628   -2.8921834172   -1.7474557741
C        3.7604454941   -3.2715274592   -0.3118634733
N        2.5288073210   -2.5739769572    0.1139060104
N        4.2695761204   -1.5800793020   -2.1359402232
O        4.3269293693   -3.7447284589   -2.5997687591
F        3.6196480558    0.6669437111    2.1512526809
H       -2.2704024019    1.1852843050    0.6242505120
H       -0.7210349792    1.2310880394    2.5628843678
H       -1.6097558108   -0.0172397464   -1.4467133451
H        6.7400959063    1.9786238349   -0.8092160313
H        1.4302745209    0.0885151994    2.4588188747
H        0.5874296047   -1.1358036955   -1.5811514684
H        6.1126997112    0.2147530637   -2.4077185786
H        5.5405493612    2.1513918366    1.3523479236
H        3.5960062171   -4.3519915961   -0.2740759956
H        4.5931295065   -3.0367239755    0.3571450058
H        4.6344095842   -1.4986292904   -3.0762288863
30   

C       -1.3622961685    0.6238006857    0.5236541035
C       -0.3880382297    0.9397106156    1.4701622397
C       -1.0660687641   -0.2908252946   -0.4848308941
C        5.9468560065    1.3163623251   -0.4269021623
C        0.8805870571    0.3491092431    1.4055235977
C        0.2017150622   -0.8773195934   -0.5446209231
C        5.5134462828    0.4474039013   -1.4218057119
C        5.3467996909    1.2667044407    0.8265419804
C        1.2103537855   -0.5631871582    0.3913634498
C        3.7753018618   -0.4187882330    0.0482782042
C        4.4619845158   -0.4425282572   -1.1910886066
C        4.2842410352    0.3959860493    1.0823571121
C        2.5378759208   -1.2458880739    0.2399356253
C        4.0634014981   -2.7110400985   -1.8917963083
C        3.7488518099   -3.1996681354   -0.4717009959
N        2.5263505576   -2.5459216217    0.0433931434
N        4.1713951451   -1.3711169531   -2.1923580031
O        4.2301438009   -3.4988972711   -2.8096523646
F        3.8123050678    0.3199246368    2.3446982200
H       -2.3443216603    1.0804703580    0.5752155475
H       -0.6164264773    1.6416792166    2.2641418382
H       -1.8172963548   -0.5506415331   -1.2220766935
H        6.7668385317    2.0010622474   -0.6171514754
H        1.5746674526    0.6199500965    2.1834851440
H        0.4104399497   -1.5901860118   -1.3357798065
H        6.0203635577    0.4484448294   -2.3798782679
H        5.7099178614    1.9026022632    1.6251086297
H        3.5940312698   -4.2816640126   -0.5061521835
H        4.6031973222   -3.0056554885    0.1830858104
H        4.4989819265   -1.2189882061   -3.1375265018
30   

C       -1.3952555545    0.5928629059    0.5633577405
C       -0.3301953823    1.1090152328    1.2997697572
C       -1.1809510733   -0.4969902157   -0.2769420525
C        5.9682459481    1.3168819491   -0.2932511665
C        0.9455428988    0.5403426082    1.1948234301
C        0.0939976955   -1.0621169228   -0.3776748980
C        5.5344345827    0.5142470918   -1.3436267174
C        5.3546257313    1.2007698918    0.9504462748
C        1.1951930337   -0.5529891977    0.3490428314
C        3.7675022691   -0.4052246380    0.0524995867
C        4.4685837298   -0.3725914356   -1.1760093695
C        4.2765563907    0.3323799669    1.1411769283
C        2.5225424563   -1.2307163947    0.1990942365
C        4.0686107938   -2.6048729370   -1.9744668858
C        3.7524821010   -3.1511372961   -0.5742925970
N        2.5242904239   -2.5254916383   -0.0365214806
N        4.1828216974   -1.2536550339   -2.2200031490
O        4.2368426543   -3.3556637577   -2.9226691717
F        3.7789499585    0.1809114870    2.3896396915
H       -2.3823679511    1.0340068545    0.6445189812
H       -0.4908695803    1.9560551188    1.9570576599
H       -2.0016605612   -0.9099772467   -0.8525091334
H        6.8004284641    1.9988544571   -0.4339416639
H        1.7215377742    0.9974293477    1.7869940108
H        0.2277345400   -1.9124840025   -1.0383740054
H        6.0539378007    0.5613690363   -2.2937778876
H        5.7191520638    1.7806164285    1.7899956888
H        3.6042860889   -4.2318108110   -0.6519011606
H        4.6039242760   -2.9790454543    0.0903491332
H        4.5169302502   -1.0624028406   -3.1557192056
30   

C       -1.4013006438    0.6022373064    0.6174237506
C       -0.2712418923    1.2485598617    1.1149970043
C       -1.2580244682   -0.6189847255   -0.0364218957
C        5.9829480582    1.3015934925   -0.1746612676
C        0.9979020472    0.6771238559    0.9595581623
C        0.0105764212   -1.1871769151   -0.1885695443
C        5.5796181483    0.5335768598   -1.2629026981
C        5.3173738971    1.1646868008    1.0400943788
C        1.1767213221   -0.5509647835    0.3009932529
C        3.7504551548   -0.3999427001    0.0392127777
C        4.4971621723   -0.3432987522   -1.1608013456
C        4.2208525284    0.3078197984    1.1643939127
C        2.5016625607   -1.2251632483    0.1332735185
C        4.1046159361   -2.5467157682   -2.0354741541
C        3.7521527947   -3.1283023884   -0.6585584852
N        2.5127693814   -2.5148630105   -0.1318665980
N        4.2388893951   -1.1907043458   -2.2387314649
O        4.2927652713   -3.2725235651   -2.9992832536
F        3.6488735029    0.1503176813    2.3812291829
H       -2.3834625188    1.0456779701    0.7370244978
H       -0.3756533001    2.2009781779    1.6222486575
H       -2.1294555581   -1.1321181388   -0.4271980058
H        6.8291265699    1.9749040782   -0.2645184496
H        1.8282331812    1.2453992738    1.3501039615
H        0.0808395871   -2.1411080531   -0.7007074488
H        6.1360360290    0.5991257974   -2.1908182379
H        5.6523956384    1.7211936771    1.9073229345
H        3.6041093670   -4.2061556970   -0.7686603090
H        4.5876913914   -2.9766060623    0.0307482575
H        4.6018649468   -0.9752111333   -3.1582887888
30   

C       -1.3883060111    0.6304331250    0.6682579180
C       -0.2218486358    1.3520279896    0.9163919387
C       -1.2969192716   -0.6829428227    0.2133185729
C        5.9871222108    1.2652325411   -0.0644795075
C        1.0321794345    0.7632588111    0.7118254896
C       -0.0432969146   -1.2687257104    0.0109336957
C        5.6288908955    0.5164003600   -1.1815569999
C        5.2559254629    1.1277286670    1.1115903425
C        1.1572832009   -0.5583686788    0.2527167738
C        3.7284524726   -0.4144806634    0.0166424526
C        4.5319547579   -0.3480112871   -1.1462744962
C        4.1434954985    0.2849522358    1.1693097230
C        2.4754256581   -1.2336682763    0.0526186938
C        4.1432385020   -2.5223932750   -2.0947595189
C        3.7324139863   -3.1321075426   -0.7476924964
N        2.4839757502   -2.5163056971   -0.2459035845
N        4.3106732348   -1.1651513748   -2.2551186996
O        4.3575432578   -3.2262298460   -3.0693425843
F        3.4860065620    0.1476044143    2.3448077123
H       -2.3589233834    1.0871896075    0.8259262546
H       -0.2865340495    2.3763088056    1.2656020838
H       -2.1972650714   -1.2540261536    0.0167775292
H        6.8452191560    1.9282917678   -0.1030510353
H        1.8928817393    1.3894530516    0.8989534336
H       -0.0149049966   -2.2949880689   -0.3397556790
H        6.2308164937    0.5884502452   -2.0801379855
H        5.5480906242    1.6759877193    1.9993754088
H        3.5745531101   -4.2046530885   -0.8909104889
H        4.5450520714   -3.0100348655   -0.0259254452
H        4.7143422910   -0.9318735214   -3.1531309105
30   

C       -1.3666673598    0.6558548315    0.7265204540
C       -0.1966013672    1.4143968052    0.7282477712
C       -1.2970079363   -0.7120920912    0.4693532771
C        5.9774041622    1.2272942203    0.0311329821
C        1.0397534285    0.8075293991    0.4757963760
C       -0.0606897631   -1.3159388337    0.2182781882
C        5.6694181084    0.4891704603   -1.1077191758
C        5.1817317645    1.0958230222    1.1648575424
C        1.1405478513   -0.5688355882    0.2159807932
C        3.7055330177   -0.4373717280   -0.0122069439
C        4.5638068089   -0.3647250383   -1.1360155891
C        4.0597433203    0.2642818867    1.1603533511
C        2.4475223083   -1.2448981690   -0.0352086912
C        4.1704753379   -2.5061469241   -2.1635357102
C        3.6947112714   -3.1441109498   -0.8531195499
N        2.4432087566   -2.5174696158   -0.3736322512
N        4.3811127023   -1.1509140261   -2.2739895671
O        4.4066376342   -3.1858365266   -3.1501144740
F        3.3293374678    0.1457318906    2.2938435559
H       -2.3240074576    1.1262078038    0.9210435799
H       -0.2455287805    2.4800095156    0.9214265793
H       -2.2007675547   -1.3108830425    0.4643572078
H        6.8428479850    1.8818080972    0.0410807923
H        1.9088937749    1.4523321132    0.4651341786
H       -0.0443331528   -2.3835896428    0.0262610878
H        6.3155369967    0.5642970659   -1.9748181058
H        5.4284311321    1.6419673642    2.0676461687
H        3.5192764670   -4.2080475251   -1.0349294509
H        4.4830257475   -3.0627042840   -0.0993959564
H        4.8270542795   -0.9015427626   -3.1473562147
30   

C       -1.3429082389    0.6746853060    0.7791356746
C       -0.2021915619    1.4436002994    0.5456608303
C       -1.2602070831   -0.7161835934    0.7164876426
C        5.9605227139    1.1976975386    0.1149392228
C        1.0184729035    0.8235883441    0.2530448900
C       -0.0392131059   -1.3331355953    0.4245344585
C        5.6995337718    0.4684954781   -1.0410277851
C        5.1088772758    1.0719132341    1.2074159954
C        1.1291328790   -0.5746078033    0.1911146548
C        3.6845206585   -0.4559019296   -0.0397823521
C        4.5897337419   -0.3763317102   -1.1268252313
C        3.9819091958    0.2496734312    1.1470374700
C        2.4217998663   -1.2480046602   -0.1205837588
C        4.1846612412   -2.4795009896   -2.2379925541
C        3.6486135387   -3.1475145661   -0.9681439468
N        2.3993180866   -2.5079274241   -0.5011497252
N        4.4420277979   -1.1297969749   -2.2920195104
O        4.4346970997   -3.1311829710   -3.2399002561
F        3.1942286718    0.1432378790    2.2426228835
H       -2.2886963542    1.1545734570    1.0043969171
H       -0.2627784059    2.5251977096    0.5865607491
H       -2.1420201430   -1.3215921580    0.8931249997
H        6.8297313402    1.8450354320    0.1688027344
H        1.8735343784    1.4601636893    0.0584604877
H       -0.0038644021   -2.4167156832    0.3825893112
H        6.3835158990    0.5472505598   -1.8782540288
H        5.3141713634    1.6161968600    2.1216269718
H        3.4526715287   -4.1995494335   -1.1931889004
H        4.4145446114   -3.1136300046   -0.1882150985
H        4.9254005762   -0.8640673682   -3.1403088582
30   

C       -1.3256653820    0.6897897079    0.8279876217
C       -0.2425253300    1.4405171244    0.3663222404
C       -1.1986020260   -0.6934044456    0.9669521545
C        5.9463632598    1.1519156712    0.2132739578
C        0.9659650511    0.8097103227    0.0480803237
C        0.0104284757   -1.3212706385    0.6487252978
C        5.7238817454    0.4296467672   -0.9547089690
C        5.0471724522    1.0368181375    1.2676433981
C        1.1181926578   -0.5779453543    0.1932471059
C        3.6627337429   -0.4808333631   -0.0367872791
C        4.6086910642   -0.4017412878   -1.0896495886
C        3.9141476033    0.2281152015    1.1594879963
C        2.3944551000   -1.2527502402   -0.1713677642
C        4.1864913251   -2.4683269035   -2.2726073715
C        3.5940224123   -3.1579261833   -1.0412558154
N        2.3503052272   -2.5009502972   -0.5845388236
N        4.4904916117   -1.1278926196   -2.2757605410
O        4.4459884971   -3.0961377894   -3.2872305371
F        3.0802586321    0.1365962188    2.2216989121
H       -2.2626031740    1.1773684100    1.0728248622
H       -0.3394493939    2.5139186177    0.2497622246
H       -2.0372057611   -1.2836666952    1.3185181115
H        6.8199598506    1.7890144368    0.3048125392
H        1.7850905629    1.4159354576   -0.3225901240
H        0.0890756671   -2.3979957912    0.7568543105
H        6.4403590677    0.5067019498   -1.7644555015
H        5.2187435084    1.5797687843    2.1895569037
H        3.3762699532   -4.1965936875   -1.3050699735
H        4.3383860165   -3.1703363944   -0.2401416253
H        5.0080056294   -0.8523170083   -3.1004672664
30   

C       -1.3043880276    0.6990977226    0.8462765041
C       -0.3091858578    1.4099907148    0.1704268255
C       -1.0969133056   -0.6431549828    1.1732671573
C        5.9614525215    1.1062814015    0.2983030815
C        0.8932033564    0.7807096556   -0.1727417035
C        0.1059909376   -1.2696251397    0.8294602222
C        5.7649116414    0.4112382901   -0.8903127047
C        5.0254184190    0.9882817240    1.3192610335
C        1.1242359914   -0.5607883036    0.1655193635
C        3.6625071069   -0.4870004501   -0.0558214265
C        4.6411331216   -0.3980659745   -1.0784554195
C        3.8834801425    0.2010177184    1.1594556203
C        2.3878584588   -1.2329274708   -0.2481526963
C        4.2004654236   -2.4123225616   -2.3496682173
C        3.5591521564   -3.1332619663   -1.1624198897
N        2.3226722838   -2.4641501705   -0.7043788653
N        4.5442638787   -1.0832283832   -2.2909176140
O        4.4674237997   -3.0061007693   -3.3826395886
F        3.0153896439    0.1088735556    2.1938111042
H       -2.2369892608    1.1848947028    1.1104185726
H       -0.4706544747    2.4490950429   -0.0929303822
H       -1.8691705299   -1.2026651857    1.6888089750
H        6.8416807294    1.7268244500    0.4307161861
H        1.6501946973    1.3433612150   -0.7083088221
H        0.2529612179   -2.3158591745    1.0761094571
H        6.5072524851    0.4946444695   -1.6757485203
H        5.1741691524    1.5128378380    2.2556585312
H        3.3208749201   -4.1541672962   -1.4736365712
H        4.2838080426   -3.1986896652   -0.3459967432
H        5.0913476316   -0.7912651866   -3.0905434758
30   

C       -1.3147984766    0.7059578390    0.8565765596
C       -0.4308123750    1.3346423004   -0.0252360179
C       -0.9978064862   -0.5508925046    1.3793318020
C        5.9757331133    1.0336832674    0.4058362813
C        0.7711076543    0.7097294566   -0.3780236384
C        0.2044158159   -1.1730624260    1.0251112623
C        5.7914356100    0.3729309430   -0.8038068977
C        5.0140152126    0.9116285851    1.4017776725
C        1.1110176950   -0.5398070123    0.1575497092
C        3.6531758908   -0.5034982204   -0.0379993061
C        4.6554212875   -0.4069215444   -1.0375090580
C        3.8597793450    0.1530128411    1.1976087868
C        2.3687059663   -1.2163693691   -0.2797109710
C        4.1912852331   -2.3665573411   -2.3872899269
C        3.5084065840   -3.1122417859   -1.2397467547
N        2.2812581868   -2.4285750537   -0.7786816041
N        4.5695143476   -1.0506825469   -2.2734872102
O        4.4619678759   -2.9292118515   -3.4365637768
F        2.9684808105    0.0571427370    2.2114633601
H       -2.2472530098    1.1878263682    1.1283125196
H       -0.6790469362    2.3046319012   -0.4407875214
H       -1.6853417470   -1.0480879635    2.0540668983
H        6.8652298147    1.6321502829    0.5731943376
H        1.4441915000    1.2002617883   -1.0728748158
H        0.4389050324   -2.1558852275    1.4197334808
H        6.5522330708    0.4614925879   -1.5707808637
H        5.1516277002    1.4112598222    2.3533633060
H        3.2497273714   -4.1144472179   -1.5927002774
H        4.2155000739   -3.2267467360   -0.4134219807
H        5.1405201922   -0.7456242699   -3.0512103791
30   

C       -1.3378570195    0.7478263581    0.8336126927
C       -0.5733252433    1.2321353502   -0.2322402444
C       -0.9006470276   -0.3691516171    1.5516230372
C        5.9911051903    0.9683669144    0.5319425018
C        0.6306379848    0.6048018914   -0.5737384607
C        0.3030318795   -0.9944757740    1.2078190608
C        5.8052154311    0.3606977939   -0.7046311674
C        5.0194287593    0.8225993690    1.5145635432
C        1.0910485077   -0.4983622295    0.1556522339
C        3.6456737061   -0.5101658929    0.0090855299
C        4.6579910273   -0.3891035723   -0.9783973534
C        3.8539103495    0.0932058603    1.2713311045
C        2.3503728990   -1.1873814446   -0.2767086218
C        4.1721831448   -2.2797602555   -2.4168699582
C        3.4606167781   -3.0604704486   -1.3111806716
N        2.2425630192   -2.3701614251   -0.8367291567
N        4.5718065905   -0.9770739519   -2.2420225746
O        4.4438637797   -2.8008972697   -3.4871178879
F        2.9552224293   -0.0265744165    2.2751664817
H       -2.2716808620    1.2315502241    1.0972367078
H       -0.9162730888    2.0903854900   -0.7988113217
H       -1.4964164315   -0.7560992798    2.3704543590
H        6.8889310993    1.5446314612    0.7298784953
H        1.2108440273    0.9776344304   -1.4108821718
H        0.6312600099   -1.8714233711    1.7550875240
H        6.5731372383    0.4681450327   -1.4620163900
H        5.1577112725    1.2814053569    2.4863786404
H        3.1852662057   -4.0405202193   -1.7106793416
H        4.1546757481   -3.2254926078   -0.4823752505
H        5.1560712131   -0.6488949066   -3.0002384369
30   

C       -1.3592271634    0.7319159723    0.7412653410
C       -0.7068090954    0.9999360998   -0.4659778384
C       -0.8051710879   -0.1812089446    1.6433345874
C        6.0146330865    0.8814962864    0.6285507449
C        0.5047877718    0.3655113329   -0.7641132626
C        0.4053804820   -0.8158051810    1.3428272336
C        5.8049677567    0.3501011243   -0.6381968176
C        5.0631138588    0.6724206119    1.6186523431
C        1.0873620597   -0.5235980986    0.1491803092
C        3.6572194063   -0.5665734835    0.0614889492
C        4.6532605390   -0.3838124363   -0.9346623758
C        3.8929999136   -0.0424005988    1.3542875770
C        2.3549684202   -1.2225114471   -0.2563019269
C        4.1617236274   -2.1932930432   -2.4692236122
C        3.4562491726   -3.0331949621   -1.4038844308
N        2.2406209991   -2.3635541408   -0.8955888103
N        4.5483544683   -0.8970464972   -2.2291867498
O        4.4305487956   -2.6553080288   -3.5670087914
F        3.0215032174   -0.2254156914    2.3700907776
H       -2.2982450658    1.2222102623    0.9723262711
H       -1.1425644184    1.6947012149   -1.1749615128
H       -1.3168184542   -0.4048496133    2.5725128403
H        6.9154475858    1.4468029130    0.8437429563
H        0.9967829216    0.5657767541   -1.7098978138
H        0.8150868492   -1.5430796186    2.0349838666
H        6.5579679278    0.5049466879   -1.4023278467
H        5.2211483545    1.0700786721    2.6141086875
H        3.1785245447   -3.9905108305   -1.8536740575
H        4.1523829348   -3.2406629502   -0.5864368449
H        5.1221061036   -0.5236230557   -2.9743747976
30   

C       -1.3745204750    0.7199007025    0.6211645573
C       -0.8270454035    0.7174872285   -0.6642125621
C       -0.7136902825    0.0560269357    1.6580376147
C        6.0545486407    0.7935723398    0.6738492526
C        0.3906604434    0.0718642845   -0.9058593123
C        0.5028328040   -0.5926154024    1.4154633017
C        5.7824701616    0.3793232534   -0.6233897346
C        5.1635065250    0.4710388098    1.6886361344
C        1.0926369648   -0.5527874913    0.1381022851
C        3.6785600564   -0.6269425460    0.0971031487
C        4.6245126848   -0.3419700192   -0.9250281632
C        3.9880750841   -0.2344237999    1.4209152046
C        2.3643464633   -1.2594825517   -0.2413071938
C        4.1226124186   -2.0495751754   -2.5599507548
C        3.4617687852   -2.9722588863   -1.5340751012
N        2.2481272851   -2.3502270278   -0.9643627298
N        4.4685191069   -0.7561458358   -2.2495067392
O        4.3757449447   -2.4339689065   -3.6909058195
F        3.1947387982   -0.5428249026    2.4661678775
H       -2.3177990130    1.2201861592    0.8095794902
H       -1.3480556014    1.2109554610   -1.4768067615
H       -1.1512551508    0.0300510699    2.6495580363
H        6.9594666694    1.3505445545    0.8935386579
H        0.7993747606    0.0622590219   -1.9109044023
H        0.9565765734   -1.1511142019    2.2235063594
H        6.4928533879    0.6132531645   -1.4079485757
H        5.3755824764    0.7690138522    2.7085781235
H        3.1883392496   -3.9037430244   -2.0375010205
H        4.1799907276   -3.2169560318   -0.7465288206
H        5.0061449109   -0.3176654253   -2.9861215579
30   

C       -1.3461540596    0.7953535201    0.5083703390
C       -0.9577666590    0.4086066613   -0.7749408031
C       -0.5352743676    0.4808535172    1.6002897948
C        6.0159128526    0.6980825300    0.7978815552
C        0.2400330362   -0.2886128289   -0.9646328797
C        0.6638773325   -0.2170645941    1.4125773253
C        5.6761116127    0.4814318737   -0.5328710022
C        5.2211231416    0.1512374674    1.7995714709
C        1.0719711900   -0.6146682061    0.1226275039
C        3.6612515128   -0.7072596182    0.1432063242
C        4.5313774740   -0.2426191530   -0.8737195670
C        4.0626096012   -0.5654450611    1.4884843530
C        2.3452140741   -1.3322541737   -0.2156694625
C        4.0591920152   -1.8172273130   -2.6325865346
C        3.4896546899   -2.8694784452   -1.6717006918
N        2.2593646075   -2.3680079478   -1.0217275235
N        4.3263561056   -0.5289969245   -2.2246231010
O        4.2972585662   -2.0883643743   -3.7991092918
F        3.3864021678   -1.1562046516    2.4966056271
H       -2.2747057581    1.3351688880    0.6566666984
H       -1.5840498963    0.6479472636   -1.6268877804
H       -0.8372450349    0.7754634139    2.5989826939
H        6.9096958802    1.2591986279    1.0502251805
H        0.5240376027   -0.5771078970   -1.9715701608
H        1.2377667962   -0.4447440844    2.2958926114
H        6.3272773023    0.8612615376   -1.3117000873
H        5.5031266774    0.2702570291    2.8389172125
H        3.2544593779   -3.7693161228   -2.2468930446
H        4.2452951003   -3.1372789020   -0.9276941669
H        4.8089468155    0.0036618623   -2.9368032538
30   

C       -1.3585039988    0.8056426292    0.4891454534
C       -1.1131368821    0.1679852677   -0.7270007175
C       -0.3957037400    0.7612800591    1.4979876218
C        6.0116478110    0.6152034077    0.9009447842
C        0.0869787650   -0.5221218164   -0.9290982367
C        0.8065510731    0.0728507146    1.2974237990
C        5.6853288740    0.4838130585   -0.4453608995
C        5.1987346948    0.0182987293    1.8601652718
C        1.0590044750   -0.6080423121    0.0866607032
C        3.6489236996   -0.7110058632    0.1371393470
C        4.5360603500   -0.2041437766   -0.8411216528
C        4.0347730183   -0.6616381695    1.4921618752
C        2.3335954269   -1.3137094197   -0.2598973565
C        4.0788197309   -1.6968099367   -2.6695467354
C        3.5100208717   -2.7918687360   -1.7549668378
N        2.2687837636   -2.3286962801   -1.0959596712
N        4.3453545091   -0.4270218598   -2.2054482699
O        4.3230006828   -1.9187438852   -3.8452120206
F        3.3258737618   -1.3031919244    2.4492689410
H       -2.2890057391    1.3395923629    0.6462376174
H       -1.8517911173    0.2087949453   -1.5195211174
H       -0.5771051972    1.2676267606    2.4392992852
H        6.9099458391    1.1474414378    1.1962270947
H        0.2500526426   -0.9955366393   -1.8918157648
H        1.5202701948    0.0978682457    2.1056110016
H        6.3515760519    0.8980906676   -1.1932761884
H        5.4705805710    0.0690335856    2.9077721532
H        3.2886272896   -3.6704149565   -2.3673260545
H        4.2616482619   -3.0827825941   -1.0155839619
H        4.8346003331    0.1360142203   -2.8891270874
30   

C       -1.3838004057    0.7695236600    0.5319724206
C       -1.2455380401   -0.0565496524   -0.5830255857
C       -0.3051696083    0.9425860466    1.3989282798
C        6.0135085284    0.5398852420    0.9951584674
C       -0.0368606442   -0.7195874896   -0.8227335962
C        0.9052245425    0.2816805058    1.1603512586
C        5.7267311675    0.4464258757   -0.3635441933
C        5.1504064229   -0.0470001717    1.9160199304
C        1.0542852004   -0.5929591113    0.0599327243
C        3.6412978568   -0.7031096428    0.1279889030
C        4.5717321124   -0.1994019544   -0.8108919446
C        3.9792111766   -0.6827510207    1.4966220723
C        2.3300522376   -1.2797451729   -0.3125517803
C        4.1328983918   -1.6319080842   -2.6896911704
C        3.5281910078   -2.7393746015   -1.8147959339
N        2.2782532938   -2.2777609900   -1.1709297432
N        4.4158872175   -0.3818950897   -2.1851913753
O        4.3998353156   -1.8285308238   -3.8649380860
F        3.1997859627   -1.2942551000    2.4193228078
H       -2.3207578395    1.2827503992    0.7172259633
H       -2.0749134851   -0.1832652306   -1.2696475580
H       -0.4019094976    1.5992569014    2.2561154989
H        6.9172778052    1.0384273500    1.3299645314
H        0.0304527171   -1.3400597455   -1.7101890628
H        1.7138025018    0.4875356922    1.8459920677
H        6.4280817091    0.8570816673   -1.0807543888
H        5.3855896360   -0.0196668956    2.9733682183
H        3.3099021661   -3.5999964025   -2.4531426457
H        4.2591781693   -3.0581968894   -1.0663196288
H        4.9336262269    0.1891117401   -2.8406960896
30   

C       -1.3959583568    0.7308247127    0.5958467178
C       -1.3379456262   -0.2480032945   -0.3956655309
C       -0.2358197356    1.0820146492    1.2850940120
C        6.0055046055    0.4600432190    1.0702407811
C       -0.1262386659   -0.8839998042   -0.6885068288
C        0.9769244609    0.4479414584    0.9930301697
C        5.7684871697    0.3927449021   -0.2995223487
C        5.0854341436   -0.1021490592    1.9499563390
C        1.0523946150   -0.5748946119    0.0188859514
C        3.6319643123   -0.6998571357    0.0949870440
C        4.6115364561   -0.2089128253   -0.8008960171
C        3.9111508181   -0.6928438438    1.4777043632
C        2.3251406760   -1.2411842249   -0.3933222778
C        4.1878378628   -1.5712175332   -2.7363706433
C        3.5281744225   -2.6843699112   -1.9122178070
N        2.2747768535   -2.2101559996   -1.2848086997
N        4.4983135835   -0.3492511328   -2.1841625460
O        4.4826216918   -1.7407783215   -3.9091796272
F        3.0601605369   -1.2593857678    2.3651866251
H       -2.3351458615    1.2234467923    0.8213401898
H       -2.2331176125   -0.5153123725   -0.9457229843
H       -0.2715935428    1.8563754337    2.0429875809
H        6.9114657907    0.9241453762    1.4461476536
H       -0.1286398548   -1.6294860064   -1.4765970603
H        1.8499832947    0.7905661547    1.5311943896
H        6.5092199303    0.7914466329   -0.9831186565
H        5.2753561760   -0.0871658124    3.0166457830
H        3.3037978061   -3.5190089714   -2.5821606937
H        4.2300849994   -3.0461413815   -1.1555194342
H        5.0534607710    0.2242654274   -2.8060026310
30   

C       -1.3921423890    0.6952628829    0.6658530895
C       -1.3800332934   -0.4103606007   -0.1848746010
C       -0.1886141715    1.1981941364    1.1600580112
C        5.9903001213    0.3835173273    1.1511640425
C       -0.1686602618   -1.0188420997   -0.5330618207
C        1.0232246997    0.5913274006    0.8124770556
C        5.8114151404    0.3296661097   -0.2278186133
C        5.0107642326   -0.1430227231    1.9870121887
C        1.0564389666   -0.5485410046   -0.0233314457
C        3.6261316705   -0.6973844874    0.0657491627
C        4.6577025253   -0.2288249729   -0.7841381013
C        3.8387435629   -0.6908251873    1.4612258034
C        2.3243245580   -1.1945799769   -0.4736934371
C        4.2491292579   -1.5202925340   -2.7754097236
C        3.5208031143   -2.6290802531   -2.0081063706
N        2.2680631759   -2.1300873878   -1.3996422232
N        4.5946798855   -0.3325377675   -2.1739607028
O        4.5751894241   -1.6659410010   -3.9431296538
F        2.9232048830   -1.2123910434    2.3109345281
H       -2.3312035190    1.1665106471    0.9335625251
H       -2.3112570277   -0.7984308505   -0.5817818134
H       -0.1914552146    2.0673950654    1.8079448764
H        6.8944170008    0.8142394420    1.5689225207
H       -0.2046697649   -1.8703744210   -1.2042453452
H        1.9330667075    1.0389577031    1.1921324837
H        6.5936658118    0.7086554065   -0.8754490984
H        5.1504158559   -0.1317827923    3.0615050808
H        3.2853839694   -3.4328346746   -2.7112112590
H        4.1854101824   -3.0419455102   -1.2439491858
H        5.1931662270    0.2356424089   -2.7594482292
