30   

C        7.4088334641   -5.7624291309    4.4739046734
C        8.5159568537   -9.0996550119    2.0655728435
C        8.9080581219   -8.8629458647    0.7502008265
C        7.5551581752   -8.2810674522    2.6636413940
C        5.8694215228   -6.0706780089    7.1917711397
C        8.3397832014   -7.8039875052    0.0407579723
C        6.7046070559   -6.2893267211    8.2913738837
C        7.2585517538   -3.9496570062    8.3279542691
C        6.9673974865   -7.2076493371    1.9629770088
C        5.7283981204   -4.7858713021    6.6415962895
C        7.4088963365   -5.2300806077    8.8676906104
C        7.3764838678   -6.9704234313    0.6256273894
C        6.4240339621   -3.7109615089    7.2290157124
C        6.1084805353   -5.8316144251    3.8837436596
C        5.9329487567   -6.3757122745    2.6157510687
N        8.4762516202   -5.7349911567    4.9415084730
N        4.8854313194   -4.5610947235    5.5604561213
N        4.9847646666   -5.1598940393    4.4186312613
O        4.7966623889   -6.1701124576    1.9578735073
Cl       8.4551378757   -5.4981295784   10.2392867268
Cl       6.7557655971   -5.6301861293   -0.3209948704
Cl       6.2805666294   -2.0831977366    6.5947759507
H        8.9545583685   -9.9187562917    2.6247217200
H        9.6538395671   -9.4950159488    0.2805051786
H        7.2557728826   -8.4905625235    3.6845751419
H        5.3249936442   -6.9001622722    6.7556542691
H        8.6509264682   -7.6128847805   -0.9797810313
H        6.8112855455   -7.2862389973    8.7027033342
H        7.8023149710   -3.1219734132    8.7666185822
H        4.2294298068   -5.5732565025    2.4799224455
30   

C        7.4340434616   -5.6053752183    4.3806631357
C        8.4846221135   -9.1122545761    2.1360397254
C        8.8625951270   -8.9512280014    0.8058259543
C        7.5393512654   -8.2527824339    2.7000637618
C        6.0124472492   -6.1749601579    7.1506771832
C        8.2967151317   -7.9259256525    0.0477146120
C        6.8778747071   -6.3748058866    8.2298678644
C        7.2431621880   -4.0021465149    8.3683856661
C        6.9501253067   -7.2128485613    1.9507169807
C        5.7580660143   -4.8822492181    6.6640806981
C        7.5025117832   -5.2892606517    8.8474421542
C        7.3488916399   -7.0507528957    0.5962682719
C        6.3754757645   -3.7822504571    7.2914116112
C        6.1170346657   -5.8311998838    3.8741944966
C        5.9375271114   -6.3380708243    2.5859440417
N        8.5161663891   -5.4475041285    4.7837961014
N        4.8752403475   -4.6771456381    5.6111787398
N        4.9654107111   -5.2613558358    4.4621335841
O        4.8528744645   -6.0141993870    1.8923555684
Cl       8.5832998054   -5.5336947951   10.1963568011
Cl       6.7473563706   -5.7545170454   -0.4225598789
Cl       6.0927619161   -2.1442616186    6.7347872279
H        8.9229477895   -9.9040292132    2.7334398951
H        9.5968500250   -9.6147983882    0.3621217062
H        7.2536054535   -8.4045821649    3.7349585837
H        5.5277078387   -7.0248452527    6.6845029963
H        8.5995263128   -7.7923526442   -0.9844538035
H        7.0681117171   -7.3773410605    8.5945904875
H        7.7253055076   -3.1538926495    8.8387626705
H        4.3016766476   -5.4106122423    2.4236173743
30   

C        7.4455351276   -5.4645795599    4.3275162015
C        8.4705615639   -9.1342882629    2.2172045844
C        8.8371491424   -9.0420854867    0.8779988551
C        7.5399183770   -8.2384772819    2.7474850230
C        6.1496225854   -6.2619399335    7.1424028747
C        8.2747210090   -8.0487555760    0.0769961341
C        7.0430283511   -6.4219297441    8.2049323994
C        7.2280409862   -4.0324664833    8.4011796230
C        6.9511622401   -7.2292075036    1.9557405858
C        5.7871286756   -4.9811084565    6.6957302736
C        7.5910360567   -5.3076329297    8.8435837141
C        7.3411286588   -7.1368405889    0.5893028259
C        6.3295107738   -3.8527955089    7.3421050504
C        6.1432556347   -5.8478668214    3.8836756551
C        5.9606342602   -6.3144753670    2.5735965907
N        8.5174214699   -5.1748470748    4.6814148524
N        4.8674688755   -4.8198933931    5.6672074739
N        4.9648846484   -5.3926560878    4.5137212302
O        4.9437916399   -5.8721950354    1.8471299589
Cl       8.7038438815   -5.5027783931   10.1742711200
Cl       6.7561108505   -5.8874942258   -0.4966451322
Cl       5.9144498324   -2.2278428821    6.8321204543
H        8.9070794747   -9.9006423010    2.8481305514
H        9.5606593464   -9.7336308075    0.4600943916
H        7.2662063391   -8.3388311061    3.7917903217
H        5.7226736144   -7.1342603673    6.6614595856
H        8.5704561008   -7.9682610530   -0.9627401011
H        7.3129930171   -7.4159107958    8.5415434397
H        7.6511338522   -3.1618818543    8.8873867493
H        4.4069826118   -5.2608237999    2.3839125240
30   

C        7.4350055742   -5.3207886432    4.2675276226
C        8.4478408041   -9.1509563699    2.2627335977
C        8.8019290964   -9.1238737836    0.9180830774
C        7.5358760756   -8.2189331646    2.7615288062
C        6.2669915024   -6.3299958770    7.1151846017
C        8.2446174558   -8.1599461590    0.0795487651
C        7.1808039898   -6.4427427320    8.1660271205
C        7.1889605884   -4.0502222124    8.4075651506
C        6.9515346074   -7.2351247256    1.9334878590
C        5.8024483411   -5.0723275177    6.6996287110
C        7.6501323301   -5.3029177819    8.8219965620
C        7.3291781083   -7.2115526117    0.5577343887
C        6.2673519352   -3.9185096161    7.3612913887
C        6.1716082716   -5.8533577842    3.8700775049
C        5.9902594090   -6.2756751409    2.5350625248
N        8.4761169802   -4.9045256137    4.5848616841
N        4.8546282773   -4.9641460159    5.6903137808
N        4.9718034626   -5.5210389811    4.5316243555
O        5.0591349430   -5.7133615482    1.7798840878
Cl       8.7859064382   -5.4399224504   10.1403812931
Cl       6.7569608193   -6.0122355075   -0.5906499210
Cl       5.7263624257   -2.3199905700    6.8870910474
H        8.8804406100   -9.8945680048    2.9228951778
H        9.5118485474   -9.8431644033    0.5243809627
H        7.2759249637   -8.2720652437    3.8126939727
H        5.8995792598   -7.2224519015    6.6222170141
H        8.5309540045   -8.1310499087   -0.9655564121
H        7.5264272436   -7.4201377832    8.4812174707
H        7.5512944924   -3.1597568362    8.9067203290
H        4.5396607473   -5.0886993575    2.3180278665
30   

C        7.4209746260   -5.1898542775    4.2369442718
C        8.3865882682   -9.1797429026    2.2852500248
C        8.7186368662   -9.2086145610    0.9358520403
C        7.5100189537   -8.2056693447    2.7661628392
C        6.3926467055   -6.3943520682    7.1130644391
C        8.1720190250   -8.2603749477    0.0737498219
C        7.3272801589   -6.4600224409    8.1491417546
C        7.1801122494   -4.0755930760    8.4247056398
C        6.9389611228   -7.2308167861    1.9163938442
C        5.8372158442   -5.1658512106    6.7244278863
C        7.7290526163   -5.3003942074    8.8151407802
C        7.2910824353   -7.2699208004    0.5315659189
C        6.2353365974   -3.9919058317    7.3942033728
C        6.2083674831   -5.8515453847    3.8791496148
C        6.0295282900   -6.2153145929    2.5129355336
N        8.4198461315   -4.6622817178    4.5226338041
N        4.8628847959   -5.1122046069    5.7369164297
N        4.9993287785   -5.6452523144    4.5699400036
O        5.2064935763   -5.5226940108    1.7432073273
Cl       8.8889652789   -5.3796667266   10.1170367878
Cl       6.7297157666   -6.1100721201   -0.6626199997
Cl       5.5818676110   -2.4271207047    6.9502475821
H        8.8100976065   -9.9119886474    2.9637646704
H        9.4025519225   -9.9598650099    0.5560416004
H        7.2719575166   -8.2197633946    3.8235944498
H        6.0764003956   -7.3025061825    6.6133522330
H        8.4399362148   -8.2774314917   -0.9765139164
H        7.7405371874   -7.4166522501    8.4459732885
H        7.4902395190   -3.1696842246    8.9312091461
H        4.7185927344   -4.8768287953    2.2854157789
30   

C        7.4067228046   -5.0467413213    4.2213712224
C        8.3157009329   -9.2236003082    2.2963849818
C        8.6118277550   -9.3133620680    0.9420406851
C        7.4902882957   -8.1993768360    2.7628652905
C        6.5286448747   -6.4386953037    7.1155894563
C        8.0765019496   -8.3783428454    0.0595568768
C        7.4747318787   -6.4354214205    8.1429912104
C        7.1456353217   -4.0704270188    8.4298487135
C        6.9359130232   -7.2297411882    1.8941670974
C        5.8743431972   -5.2566198169    6.7392284150
C        7.7910107416   -5.2505546256    8.8106399757
C        7.2451939595   -7.3384458663    0.5006497702
C        6.1869577955   -4.0569893264    7.4088305454
C        6.2692662889   -5.8362606944    3.8795692098
C        6.0992000884   -6.1464907901    2.4838271896
N        8.3423713670   -4.4076064667    4.4926985112
N        4.8850418331   -5.2809685920    5.7664679196
N        5.0580567343   -5.7832127083    4.5913351496
O        5.4018599143   -5.3397827690    1.7026473708
Cl       8.9639266322   -5.2448953727   10.1031631412
Cl       6.6853843607   -6.2198566080   -0.7336555511
Cl       5.4096905830   -2.5464996728    6.9767245273
H        8.7289710074   -9.9468057897    2.9907335469
H        9.2578742871  -10.1027893572    0.5735296122
H        7.2851879853   -8.1710654676    3.8267044797
H        6.2778061928   -7.3666707338    6.6151938008
H        8.3137643611   -8.4459953407   -0.9960455213
H        7.9626289153   -7.3585244811    8.4324969548
H        7.3896246122   -3.1449389204    8.9371344959
H        4.9587869526   -4.6605785464    2.2421424328
30   

C        5.9372704288   -7.1171198855    5.0130479338
C        9.3865506647   -7.0710921330    1.5288077483
C        9.2344134336   -7.7491199802    0.3266154005
C        8.2614432658   -6.6644635131    2.2465509698
C        5.6979795674   -4.9871506417    7.6567010150
C        7.9543031130   -8.0096503317   -0.1554237842
C        6.2768272365   -5.4598899544    8.8370336821
C        8.4547598160   -5.2474078473    7.8412878844
C        6.9459653042   -6.9221989197    1.7925368937
C        6.4910287699   -4.6510374895    6.5505468654
C        7.6624065342   -5.5920082835    8.9400750076
C        6.8055343854   -7.6111054433    0.5441567436
C        7.8931095089   -4.7764774230    6.6481879217
C        6.0752307887   -6.0981059409    4.0302329080
C        5.8021410072   -6.4972657289    2.6513144460
N        5.8079355440   -7.9588858652    5.8082238785
N        5.8802399732   -4.1326878271    5.4187663246
N        5.8587846814   -4.7323334369    4.2764039752
O        4.5589541808   -6.6823349599    2.2491925103
Cl       8.3945427257   -6.1622741893   10.4182959600
Cl       5.2689610428   -8.0329875217   -0.1975160481
Cl       8.9538926523   -4.3103534449    5.3326516858
H       10.3787231736   -6.8610009594    1.9129049383
H       10.1049327098   -8.0745677611   -0.2324231184
H        8.4365768660   -6.1410295244    3.1780135364
H        4.6205428788   -4.8833204830    7.5908713008
H        7.8374886844   -8.5405070637   -1.0932678705
H        5.6495488607   -5.7234560730    9.6809876216
H        9.5311842269   -5.3348889752    7.9179664510
H        3.9385869201   -6.3930969528    2.9411114396
30   

C        6.0588896918   -7.0799740361    4.8954892470
C        9.4149790556   -7.1541910341    1.5898791327
C        9.2473317444   -7.9387318339    0.4557130404
C        8.2998061765   -6.6351904851    2.2486877772
C        5.6776689702   -5.1215376133    7.6946596004
C        7.9622383737   -8.1979086287   -0.0149917326
C        6.3595567489   -5.5821199717    8.8234061959
C        8.4520716516   -5.1173357506    7.7350756407
C        6.9816174471   -6.8825674984    1.7996529824
C        6.3751457057   -4.6651249449    6.5674885506
C        7.7546763793   -5.5820726708    8.8538769016
C        6.8240953684   -7.6897004253    0.6283470512
C        7.7869174499   -4.6559871618    6.5921074223
C        6.0720869798   -5.9986020590    3.9689482899
C        5.8487993106   -6.3170070767    2.5849664348
N        6.0423626086   -7.9709182295    5.6463239312
N        5.6524543893   -4.1714887536    5.4907954360
N        5.6724949829   -4.6950375977    4.3112388809
O        4.6222717858   -6.3242527587    2.0889644088
Cl       8.6136626151   -6.1382510401   10.2678671942
Cl       5.2745830861   -8.1439019712   -0.0648332265
Cl       8.7308522890   -4.0371510274    5.2501667122
H       10.4110556396   -6.9469397685    1.9652237052
H       10.1095433694   -8.3498847439   -0.0579126954
H        8.4792081795   -6.0260737194    3.1264156514
H        4.5932445859   -5.1230135173    7.6849971205
H        7.8328346831   -8.8162401666   -0.8958650206
H        5.8048659238   -5.9401164970    9.6832977848
H        9.5344452215   -5.1026369881    7.7566329584
H        4.0032722833   -5.9444812290    2.7373276104
30   

C        6.2060101107   -7.0313569893    4.8434914631
C        9.4031001784   -7.2261933741    1.6040861783
C        9.2037148823   -8.0579210302    0.5084828651
C        8.3084225499   -6.6426186321    2.2433475495
C        5.6414913524   -5.1690586751    7.7213263576
C        7.9076411182   -8.3025904609    0.0588957725
C        6.3842984170   -5.5990175612    8.8232197448
C        8.4099004933   -4.9917194770    7.6802308052
C        6.9823143880   -6.8708408900    1.8104036973
C        6.2738639810   -4.6571786124    6.5797506937
C        7.7768582545   -5.5128195920    8.8124480178
C        6.7906432715   -7.7304103947    0.6850929600
C        7.6833632332   -4.5588629226    6.5633328903
C        6.0559800861   -5.9385720667    3.9407602165
C        5.8717650633   -6.2238300139    2.5594249026
N        6.3311756085   -7.9311850880    5.5732820671
N        5.4838265623   -4.2083145862    5.5299690589
N        5.5235579726   -4.6968611623    4.3352548750
O        4.6772973089   -6.0935130708    2.0034830718
Cl       8.7108046949   -6.0338094879   10.1920074589
Cl       5.2176934685   -8.1764894590    0.0426306401
Cl       8.5484644006   -3.8706375544    5.2016834045
H       10.4075981467   -7.0315060630    1.9633406986
H       10.0497681708   -8.5177796153    0.0094860174
H        8.5060709844   -5.9953155844    3.0899488872
H        4.5595467574   -5.2397576839    7.7432465114
H        7.7528994660   -8.9595872976   -0.7892666309
H        5.8790410331   -6.0015888988    9.6938079913
H        9.4895824140   -4.9115870831    7.6701698580
H        4.0722324433   -5.6589422595    2.6306931543
30   

C        6.3706007104   -6.9658032570    4.8205047074
C        9.4009447165   -7.2690693370    1.5905734694
C        9.1656667033   -8.1523107525    0.5423203416
C        8.3282693490   -6.6401470293    2.2247736804
C        5.5745446395   -5.1986928132    7.7468014502
C        7.8560337991   -8.4052001943    0.1367719775
C        6.3480309737   -5.5928807559    8.8408147098
C        8.3285684051   -4.8700831639    7.6863493764
C        6.9921087987   -6.8742544337    1.8313197292
C        6.1684036322   -4.6478040123    6.6028095520
C        7.7336763769   -5.4318073839    8.8199033881
C        6.7622053216   -7.7879453672    0.7605442364
C        7.5709015895   -4.4704829717    6.5773245906
C        6.0492721750   -5.8971223467    3.9316857094
C        5.9034578389   -6.1698924152    2.5549107317
N        6.6412907986   -7.8452220460    5.5356868921
N        5.3429182894   -4.2473651179    5.5598449214
N        5.4075767919   -4.7169741324    4.3578372054
O        4.7534202035   -5.9223863732    1.9451245803
Cl       8.7052090693   -5.9121772233   10.1883250283
Cl       5.1631256841   -8.2453999763    0.1969750556
Cl       8.3883978852   -3.7328501128    5.2117578819
H       10.4159270631   -7.0688836670    1.9156551859
H        9.9944555268   -8.6461594548    0.0468470353
H        8.5465977942   -5.9508395660    3.0328616795
H        4.4983729397   -5.3292479339    7.7762163502
H        7.6727349216   -9.1030870882   -0.6721050687
H        5.8721555896   -6.0271675255    9.7127111539
H        9.4024928945   -4.7335677319    7.6683768606
H        4.1593142281   -5.4505014419    2.5560944674
30   

C        6.5039044237   -6.9209392499    4.8000522386
C        9.4043364383   -7.3323072248    1.5740851491
C        9.1337916766   -8.2395548422    0.5541778138
C        8.3547777263   -6.6651900220    2.2085439720
C        5.5197007915   -5.2734265810    7.7647779852
C        7.8122742828   -8.4792684878    0.1782049361
C        6.3245028432   -5.6245095881    8.8507337961
C        8.2457704897   -4.7646609277    7.6901976799
C        7.0097259280   -6.8859498748    1.8418858979
C        6.0680253598   -4.6767410241    6.6212072713
C        7.6965917123   -5.3740595464    8.8222659771
C        6.7428443786   -7.8231301362    0.8041444579
C        7.4559377478   -4.4054864372    6.5894444765
C        6.0368460989   -5.8959649625    3.9230356869
C        5.9411662511   -6.1374189606    2.5459636769
N        6.8972929372   -7.7640445121    5.5020391977
N        5.2088538118   -4.3312231679    5.5852086502
N        5.2979045340   -4.7826921533    4.3771232407
O        4.8602673212   -5.7600487129    1.8765186714
Cl       8.7068287561   -5.8043815492   10.1793613045
Cl       5.1200292903   -8.2565152990    0.2937057129
Cl       8.2152449398   -3.6072618992    5.2241280234
H       10.4284655236   -7.1425212102    1.8758548605
H        9.9445412988   -8.7618773044    0.0580640642
H        8.5949536419   -5.9557361188    2.9929998859
H        4.4546736271   -5.4747759133    7.7994926408
H        7.6009011174   -9.1953263257   -0.6075759282
H        5.8837426707   -6.0959105052    9.7217921833
H        9.3087383865   -4.5600582776    7.6663474177
H        4.2699577439   -5.2656052439    2.4736152512
30   

C        6.6417824224   -6.8402206224    4.8031461460
C        9.4116945045   -7.3672005759    1.5651563168
C        9.1006723211   -8.2934539961    0.5733457980
C        8.3895346406   -6.6634153203    2.2051932725
C        5.4663925557   -5.3485546523    7.8053220766
C        7.7663870885   -8.5150343857    0.2307653222
C        6.2969263971   -5.6523428275    8.8860046952
C        8.1466575044   -4.6365251809    7.7353894884
C        7.0340752761   -6.8685058984    1.8719170782
C        5.9661977306   -4.6986919266    6.6688101118
C        7.6466940538   -5.3010333390    8.8593129477
C        6.7256192589   -7.8212187771    0.8640307160
C        7.3297000769   -4.3214370049    6.6405808109
C        6.0321899392   -5.8753067708    3.9442173457
C        5.9876343418   -6.0835288238    2.5655867613
N        7.1535615868   -7.6328871124    5.4875409297
N        5.0802973659   -4.4110866062    5.6372708013
N        5.1972876354   -4.8414522972    4.4234208433
O        4.9867036294   -5.5830024667    1.8513186224
Cl       8.6890741649   -5.6760132265   10.2085726340
Cl       5.0789373066   -8.2184775940    0.4055567922
Cl       8.0248351431   -3.4511693638    5.2850524900
H       10.4456987224   -7.1908039042    1.8402024776
H        9.8901253782   -8.8435563720    0.0729359635
H        8.6570482801   -5.9383115346    2.9662864505
H        4.4193789537   -5.6290462210    7.8380704192
H        7.5230854769   -9.2440262125   -0.5335453324
H        5.8938152490   -6.1662553915    9.7512010617
H        9.1918788089   -4.3547004891    7.7129319140
H        4.3971350318   -5.0769241744    2.4397332720
30   

C        6.7487598552   -6.7880782302    4.8092849220
C        9.3930743983   -7.4412070307    1.5355213913
C        9.0392259758   -8.3820981178    0.5714123297
C        8.4008297197   -6.7049611486    2.1864883011
C        5.4152062935   -5.4569820392    7.8330553667
C        7.6923484421   -8.5849618196    0.2666664937
C        6.2775810918   -5.6930446186    8.9055735060
C        8.0208414961   -4.5085726590    7.7500919889
C        7.0347059747   -6.8945753593    1.8921710010
C        5.8462954824   -4.7583564407    6.6976221850
C        7.5909377681   -5.2242033986    8.8716827450
C        6.6827631441   -7.8575773023    0.9123222897
C        7.1699581405   -4.2581487065    6.6640717437
C        6.0056774042   -5.9100666458    3.9611116813
C        6.0118548789   -6.0782403188    2.5810984261
N        7.3704869531   -7.5087802325    5.4823137625
N        4.9305582320   -4.5512877666    5.6723484267
N        5.0739667309   -4.9694640922    4.4564525168
O        5.1015829660   -5.4622295959    1.8342575484
Cl       8.6737964352   -5.5186983500   10.2090648210
Cl       5.0139851301   -8.2143420952    0.5059253568
Cl       7.7740179825   -3.3195783831    5.3104917109
H       10.4369156477   -7.2781000399    1.7799432049
H        9.8054851173   -8.9565961941    0.0624415226
H        8.6988295319   -5.9674964240    2.9240113362
H        4.3976068085   -5.8297927006    7.8705813604
H        7.4154196227   -9.3227342650   -0.4774656942
H        5.9281344843   -6.2467495575    9.7695155044
H        9.0373466118   -4.1364777084    7.7220907157
H        4.5071466480   -4.9520581443    2.4144608562
30   

C        6.8955024577   -6.6818074657    4.7914499320
C        9.3836305827   -7.5126323288    1.4535249258
C        8.9726080312   -8.4766185338    0.5352557189
C        8.4329753028   -6.7347105861    2.1183732238
C        5.3676869671   -5.5938276606    7.8166839241
C        7.6105591533   -8.6596051375    0.2890201362
C        6.2388686028   -5.7794040707    8.8919885394
C        7.8708524273   -4.3975097094    7.7943646769
C        7.0535751102   -6.9077352715    1.8843233526
C        5.7402666163   -4.8225812056    6.7082128828
C        7.5018073330   -5.1869132580    8.8879229196
C        6.6437353487   -7.8893559097    0.9499920821
C        7.0088650883   -4.1950377094    6.7068062788
C        6.0229157525   -5.9186130978    3.9547775861
C        6.0666587510   -6.0516126296    2.5735291312
N        7.6236131141   -7.3091306209    5.4514188762
N        4.8214057592   -4.6768796955    5.6753372565
N        5.0049474605   -5.0759106176    4.4577111765
O        5.2483088676   -5.3344237512    1.8103714617
Cl       8.5969165284   -5.4218162319   10.2271991515
Cl       4.9505986731   -8.2029765068    0.6186692761
Cl       7.5311261117   -3.1644162537    5.3868122726
H       10.4394316216   -7.3634154093    1.6510176002
H        9.7065746880   -9.0827959788    0.0155484077
H        8.7730869869   -5.9789893651    2.8181950088
H        4.3903750873   -6.0633635037    7.8298828754
H        7.2889854155   -9.4124023850   -0.4213041998
H        5.9363324222   -6.3909249970    9.7343146153
H        8.8480724931   -3.9309988055    7.7890669841
H        4.6524597498   -4.8172377387    2.3829917238
