74

C      2.93000    1.57182   -1.93784
C      2.73028    0.65265   -0.90309
C      0.93137    2.73394   -1.29015
C      0.72843    1.81296   -0.26201
C      2.04118    2.63032   -2.14132
C      1.62588    0.75471   -0.05266
C      1.98505    5.08297   -2.91042
C      0.06321   -0.97447    0.95102
C      3.25888    5.77205   -3.39427
C      0.45364   -2.10810    0.01596
C      2.22646    3.59608   -3.30770
C      1.40409   -0.23483    1.09529
C      1.35188    3.15955   -4.49003
C      1.57922    0.45939    2.44945
C      5.44881    4.61777   -5.42396
C      1.88784   -4.37415   -1.00476
C      6.83323    4.91091   -1.77449
C      6.50429    2.75646   -3.00397
C      8.02937    4.52289   -3.93943
C      4.97804   -2.38597    0.34459
C      3.80661   -4.19628    1.63874
C      4.73390   -4.63813   -0.65167
C      5.53123    4.94327   -3.92385
C      2.65209   -3.17972   -0.40767
C      6.71846    4.27024   -3.17075
C      4.02320   -3.59523    0.23859
N      4.25991    4.72012   -3.19816
N      1.74278   -2.54663    0.56853
O      3.58380    3.56120   -3.79798
O      2.38028   -1.29390    1.04134
H      3.78705    1.47422   -2.59448
H      3.43871   -0.15229   -0.74793
H      0.21320    3.53980   -1.42584
H     -0.14006    1.92770    0.38323
H      1.89458    5.18052   -1.82748
H      1.08448    5.49277   -3.37485
H     -0.73164   -0.34703    0.54547
H     -0.25192   -1.37342    1.91985
H      3.17030    6.08075   -4.44812
H      3.53032    6.64150   -2.78934
H     -0.25585   -2.93712    0.04719
H      0.53789   -1.74159   -1.02025
H      1.45498    3.86766   -5.31847
H      0.30105    3.10895   -4.18943
H      1.65686    2.16800   -4.83692
H      1.44816   -0.26571    3.25766
H      0.84988    1.26610    2.57022
H      2.58051    0.89296    2.52346
H      5.44122    3.54187   -5.60729
H      6.29752    5.05662   -5.95397
H      4.53522    5.02899   -5.86171
H      1.62612   -5.10444   -0.23279
H      2.48893   -4.87290   -1.76500
H      0.96615   -4.05235   -1.49398
H      7.06575    5.98084   -1.84852
H      5.89666    4.80066   -1.22168
H      7.63415    4.43604   -1.19668
H      6.34050    2.25579   -3.96359
H      5.64147    2.55889   -2.36565
H      7.38577    2.30257   -2.53655
H      8.06241    3.97761   -4.88754
H      8.88521    4.19284   -3.34045
H      8.16955    5.58927   -4.15611
H      5.15602   -1.94115   -0.64241
H      4.58589   -1.61236    1.00270
H      5.94847   -2.71436    0.73470
H      3.12432   -5.05249    1.60990
H      3.38569   -3.45693    2.32333
H      4.76294   -4.54475    2.04600
H      4.22692   -5.60717   -0.65050
H      5.75103   -4.80290   -0.28083
H      4.81650   -4.29523   -1.69039
H      5.69655    6.02502   -3.83100
H      2.86708   -2.47217   -1.22736
