24

C      0.26652   -1.01716   -0.45809
C      1.09131    1.10803   -1.53770
C     -0.27276   -0.22935    1.79814
C      1.27209    0.14971   -0.37016
C     -0.86134   -0.91348    0.56161
C     -2.04771   -0.13835   -0.04684
C      3.51911    3.46654   -2.89323
C      2.15878    2.80038   -2.81552
O      0.40903   -1.91788   -1.25725
O      0.05796    1.25728   -2.15915
O      2.22798    1.79176   -1.76759
S      0.94423    1.03908    1.20969
H     -1.03097    0.29010    2.38818
H      0.24470   -0.94626    2.44085
H      2.28676   -0.25373   -0.38220
H     -1.18118   -1.93244    0.79883
H     -1.77172    0.89208   -0.27914
H     -2.87942   -0.13143    0.66501
H     -2.38310   -0.61424   -0.97159
H      3.77654    3.94214   -1.94243
H      4.29789    2.73936   -3.14060
H      3.50582    4.23603   -3.67179
H      1.88429    2.30639   -3.75130
H      1.36509    3.50756   -2.55987
