49

C      2.71421    3.99640    0.09014
C      0.76319    3.13076   -1.04567
C     -3.30458   -0.90917   -1.32436
C     -2.39745    2.29075   -2.82398
C     -2.94219   -0.07490   -3.72305
C     -1.24847    3.20232   -2.39747
C     -3.57511   -1.54951    1.02234
C     -2.00054   -2.83604   -0.33558
C     -4.20504   -2.85659    1.49791
C     -2.65866   -4.12196    0.16555
C     -0.50467    1.02367   -1.37516
C     -2.57764   -1.12815   -2.67344
C     -1.87978    1.03383   -3.53899
C     -0.75584    0.33569   -2.72480
C      3.95625    4.26380    0.88146
C     -3.77901   -5.17561    2.02649
N      2.07916    4.88666   -0.60514
N      0.96472    4.41418   -1.25638
N     -0.27360    2.44483   -1.59239
N     -2.96021   -1.73279   -0.29337
N     -3.21641   -3.93602    1.50366
O     -4.15212   -0.01674   -1.20090
O     -1.15104   -1.03137   -2.52411
S      1.96786    2.38941    0.01980
H     -3.00560    2.00632   -1.96149
H     -3.05406    2.85321   -3.49552
H     -2.85890   -0.52371   -4.71624
H     -3.95853    0.29488   -3.58575
H     -0.73415    3.62189   -3.27099
H     -1.61348    4.05123   -1.81017
H     -4.32234   -0.76123    0.94243
H     -2.80006   -1.23764    1.73463
H     -1.14918   -2.58750    0.31077
H     -1.61446   -2.97436   -1.34154
H     -4.58452   -2.72123    2.51643
H     -5.06808   -3.09894    0.84755
H     -3.43637   -4.43580   -0.55954
H     -1.90337   -4.91458    0.20512
H     -1.35403    0.85792   -0.70076
H      0.37214    0.57426   -0.90657
H     -2.78853   -2.14243   -3.02714
H     -1.47960    1.33260   -4.51271
H      0.18510    0.30836   -3.28184
H      3.81009    4.04407    1.94453
H      4.79670    3.65785    0.52605
H      4.21275    5.31965    0.77234
H     -4.14406   -5.01313    3.04555
H     -3.00283   -5.94672    2.06315
H     -4.61864   -5.55979    1.41687
