21

C      2.25419   -1.09376   -0.15140
C      1.00517   -1.04918    0.46793
C      3.41528   -1.17734    0.62078
C      0.88690   -1.11291    1.86490
C      2.06182   -1.20214    2.62542
C      3.31654   -1.22373    2.01271
C     -0.46803   -1.15337    2.51695
C     -2.70063    0.08896    2.81235
C     -2.92559   -0.94531    1.75958
C     -1.53831   -0.30960    1.90967
O     -0.68314   -1.87131    3.48572
F      1.99281   -1.22850    3.96339
Br     4.89042   -1.31489    3.08458
H      2.32963   -1.06237   -1.23423
H      0.10508   -0.99349   -0.13671
H      4.39413   -1.20270    0.15290
H     -3.10803    1.08407    2.66406
H     -2.62816   -0.25081    3.84025
H     -3.00361   -1.97910    2.08053
H     -3.48923   -0.68070    0.87014
H     -1.23738    0.40398    1.15082
