36

C     -5.67637    3.41292   -0.83097
C     -6.20466    2.80070   -1.97048
C     -5.34812    2.63896    0.28297
C     -6.40851    1.41936   -1.97905
C     -5.53562    1.24720    0.30585
C     -6.08302    0.66335   -0.85095
C     -4.25393   -0.76744    1.37813
C     -0.31731   -0.45093    1.04489
C     -1.24816    0.76251    1.17795
C     -1.09104   -1.75971    1.26054
C     -5.21829    1.04557    2.90414
C     -6.35493    0.16292    2.47912
C     -2.48297    0.62399    0.27379
C     -2.31962   -1.81609    0.34530
C     -5.20876    0.41654    1.51198
N     -3.17826   -0.63985    0.53199
O     -4.46624   -1.80988    2.00237
Cl    -6.40346   -1.06224   -0.90160
H     -5.51463    4.48722   -0.81026
H     -6.46154    3.38888   -2.84718
H     -4.91879    3.12172    1.15600
H     -6.82672    0.92506   -2.85031
H      0.51382   -0.37284    1.75477
H      0.12632   -0.45433    0.03932
H     -1.58613    0.85803    2.21798
H     -0.71780    1.68802    0.92303
H     -0.44736   -2.62532    1.06507
H     -1.42910   -1.83361    2.30070
H     -5.39257    2.11296    2.99148
H     -4.50700    0.64055    3.61719
H     -6.41246   -0.83894    2.88766
H     -7.29702    0.64029    2.22951
H     -3.15690    1.46106    0.42328
H     -2.18008    0.63887   -0.78160
H     -2.00432   -1.82527   -0.70663
H     -2.91639   -2.70633    0.53719
