44

C      0.70317   -0.30990   -4.68661
C      2.15408    1.39539   -3.79840
C      1.75842   -0.82580   -5.44587
C      3.22234    0.89206   -4.54135
C      0.88024    0.80470   -3.85621
C      3.00296   -0.21444   -5.35694
C      0.59542   -1.67338    1.24930
C      0.16422    1.86151   -1.63973
C     -1.80497    0.57292    0.76525
C     -1.61113   -0.87488    0.27389
C     -0.89466    1.05131    1.90933
C     -1.20614    2.32844   -3.74977
C     -1.68351    1.00174   -3.22474
C      0.62542   -0.52553   -1.04813
C      1.25972    1.35498    0.47394
C     -0.17732   -1.36848   -0.03199
C      0.61929    0.80131    1.75938
C     -0.22845    1.41025   -3.04172
N      0.98384   -0.60041    1.99759
N      0.66716    0.91016   -0.78573
O      0.85360   -2.82877    1.58899
O      0.03960    3.04138   -1.29736
F      4.03658   -0.71176   -6.08491
H     -0.26355   -0.80077   -4.74400
H      2.31060    2.26595   -3.16695
H      1.62603   -1.69033   -6.08921
H      4.20844    1.34458   -4.49961
H     -1.71236    1.26888   -0.06819
H     -2.84247    0.66556    1.10860
H     -2.03260   -1.56799    1.01200
H     -2.21113   -1.00429   -0.63526
H     -1.04873    2.12958    2.03203
H     -1.20125    0.57875    2.85018
H     -1.07473    2.42919   -4.82225
H     -1.48874    3.23116   -3.21958
H     -2.30915    1.00496   -2.33739
H     -1.92142    0.21289   -3.93113
H      1.65003   -0.91673   -1.10386
H      0.17629   -0.67997   -2.02402
H      1.18831    2.44219    0.48434
H      2.32065    1.07170    0.48108
H     -0.27414   -2.35485   -0.49402
H      1.11025    1.35196    2.56830
H      1.43761   -0.84295    2.87088
