39

C     -1.74580   -0.34504   -2.36857
C     -1.78593    0.98510   -1.95969
C      4.45257    0.56952   -2.83182
C     -0.93075   -1.25270   -1.69435
C      4.80337    0.14012   -1.55303
C      2.61083   -0.96076   -2.85487
C     -1.01088    1.43117   -0.87772
C      3.34729    0.03157   -3.50647
C     -0.11815   -0.83476   -0.63307
C     -0.16701    0.51381   -0.20231
C      4.05323   -0.84472   -0.89828
C      2.94879   -1.39867   -1.56821
C     -1.06140    2.86401   -0.48276
C      1.07650   -1.34945    1.42798
C      1.52400    0.10246    1.42846
C      2.98172    0.48316   -4.90131
N      0.70151   -1.77198    0.06974
O     -0.32757    3.44359    0.29565
O      1.16352   -3.27126   -1.93965
O      2.60940   -3.44612    0.14449
O      0.51515    0.96001    0.87944
O      4.34677   -1.24497    0.37642
O     -2.06772    3.53707   -1.12851
S      1.87911   -2.64428   -0.82967
H     -2.36228   -0.68409   -3.19554
H     -2.42389    1.69706   -2.46923
H      5.04970    1.34322   -3.30889
H     -0.90446   -2.29630   -1.98238
H      5.66181    0.57994   -1.04778
H      1.75911   -1.42020   -3.34507
H      1.86636   -2.00145    1.79933
H      0.19338   -1.47550    2.06262
H      1.69169    0.46659    2.44435
H      2.44325    0.22659    0.85271
H      3.56252   -0.06029   -5.65591
H      1.92292    0.30777   -5.10939
H      3.18051    1.55036   -5.03795
H      5.16744   -0.81067    0.65998
H     -1.99497    4.45801   -0.81470
