16

C      1.97320   -0.89714   -0.16313
C      0.85738   -0.41682    0.52178
C      2.95857   -1.61744    0.52413
C      0.67114   -0.63429    1.89757
C      1.65557   -1.36842    2.59680
C      2.75426   -1.86620    1.87712
C     -0.56641   -0.02675    2.52410
O     -1.36404    0.59799    1.85579
O      1.49217   -1.60720    3.93373
O     -0.75961   -0.18967    3.84910
I      4.57727   -2.37535    3.17404
H      2.08375   -0.71118   -1.22732
H      0.09413    0.15830    0.00798
H      3.84403   -1.98753    0.01806
H      2.33507   -1.95101    4.30022
H     -0.03017   -0.70632    4.24643
