26

C      2.30313   -3.21258   -1.15442
C      4.02833   -2.55674   -2.72720
C      1.77061    0.16890    0.07206
C      1.83773   -4.16454   -2.06330
C      3.57480   -3.51765   -3.63280
C      0.63485    0.59518    0.75398
C      1.26868   -0.81670    2.62064
C      2.41268   -1.26195    1.93616
C      3.39673   -2.40474   -1.48621
C      2.66003   -0.75484    0.64050
C      2.47860   -4.31397   -3.29503
C      0.39653    0.09417    2.03623
C      3.23073   -2.28502    2.71923
O      2.86901   -2.65089    3.81916
O      4.35147   -2.78609    2.17395
S      4.09183   -1.18817   -0.36033
Cl     1.89639   -5.51244   -4.43373
Cl    -1.01949    0.62229    2.91764
H      1.80288   -3.10421   -0.19764
H      4.87007   -1.92393   -2.99542
H      1.97403    0.55292   -0.92271
H      0.98761   -4.79048   -1.81116
H      4.06194   -3.63752   -4.59522
H     -0.04812    1.30810    0.30322
H      1.08357   -1.21011    3.61359
H      4.52220   -2.38568    1.28709
