51

C     -1.86073    2.28233   -3.11982
C     -3.38507    0.90317   -4.40813
C     -2.26445    0.98516   -3.56322
C     -3.77963   -0.30037   -4.97730
C     -2.97259   -1.42580   -4.68596
C     -1.55816   -0.22359   -3.27113
C     -0.26524   -0.53211    0.74521
C      1.22378    1.95255    1.06832
C     -0.27947   -2.35412    3.83746
C     -1.48451   -2.05118    4.70345
C      1.81179    0.84127    0.20326
C      1.24771   -1.25272   -1.15109
C      0.48642    1.33718    2.25018
C      0.17449   -1.59611   -2.18499
C     -0.15405    0.69928   -1.41759
C     -0.72761   -0.92232    4.03681
C      0.69765   -0.05087   -0.35465
C     -4.98459   -0.39625   -5.88101
C     -3.28048   -2.76917   -5.29855
C     -1.37552   -0.18011    2.88472
N     -1.55373    3.36382   -2.80236
N     -1.91886   -1.37970   -3.86961
N     -0.49761   -0.30681   -2.42117
N     -0.42493    0.25869    1.85408
O     -0.93069   -1.56089    0.57903
H     -3.93370    1.81631   -4.62472
H      2.00895    2.61459    1.44801
H      0.53965    2.57008    0.47595
H      0.63355   -2.67645    4.33022
H     -0.45649   -2.79218    2.86064
H     -2.46481   -2.30346    4.30819
H     -1.39069   -2.16557    5.77943
H      2.39450    1.25466   -0.62735
H      2.49970    0.23166    0.80420
H      1.47529   -2.10394   -0.50657
H      2.17190   -0.94163   -1.65097
H      1.21667    0.94638    2.97371
H     -0.10471    2.09814    2.77201
H      0.58938   -1.98181   -3.11992
H     -0.53851   -2.32425   -1.79481
H     -1.05537    1.13940   -0.98421
H      0.43188    1.51574   -1.85486
H     -0.11311   -0.31366    4.69711
H     -4.71302   -0.73712   -6.88699
H     -5.72679   -1.10349   -5.49289
H     -5.47475    0.57606   -5.98157
H     -3.28076   -2.71461   -6.39333
H     -2.53783   -3.50043   -4.97749
H     -4.27516   -3.11883   -4.99796
H     -1.89752    0.71030    3.25630
H     -2.10696   -0.82149    2.39325
