14

C      2.38610   -0.98847   -0.19055
C      1.40787   -0.32303    0.54542
C      2.34372   -1.24671    2.59357
C      3.34491   -1.78632    0.44345
C      1.38442   -0.47015    1.93463
C      3.31488   -1.91625    1.84359
N      4.26564   -2.53376   -0.43996
O      4.45995   -2.06428   -1.56731
O      4.74646   -3.58619   -0.02022
Br     0.02962    0.40054    2.96027
I      5.13196   -2.54745    2.99992
H      2.41154   -0.91268   -1.27215
H      0.66875    0.29089    0.04237
H      2.32564   -1.34214    3.67311
