29

C     -0.25687   -2.00058    1.13578
C      3.33989   -4.28288   -1.60098
C      0.00319   -3.32196    0.84084
C      3.08470   -2.96438   -1.30126
C      0.57539   -0.96761    0.64110
C      2.51195   -5.32133   -1.10321
C      1.97056   -2.63107   -0.48385
C      1.11948   -3.65830    0.02855
C      1.66361   -1.27758   -0.15137
C      1.42911   -5.01507   -0.30328
C      0.54065   -7.74508   -1.40346
C     -0.08713   -8.08281    0.99847
C      0.83512   -7.31633    0.04842
O     -0.24533   -7.19476   -2.12861
O      2.50693   -0.31945   -0.66228
O      1.20699   -8.86809   -1.81234
O      0.57494   -5.94371    0.24653
H     -1.11134   -1.73795    1.75366
H      4.18356   -4.54577   -2.23325
H     -0.63786   -4.11179    1.21367
H      3.71726   -2.17133   -1.68328
H      0.35422    0.07051    0.88464
H      2.74318   -6.34298   -1.38254
H     -1.12902   -7.84739    0.76839
H      0.12521   -7.78864    2.02921
H      0.05809   -9.16303    0.90242
H      1.88641   -7.53187    0.29376
H      2.19294    0.55446   -0.38077
H      1.82071   -9.16812   -1.11992
