35

C      8.36632   -2.15758    1.88605
C      7.11773    0.21072    7.93830
C      2.38695   -1.56143   -1.06212
C      6.34181    0.47756    6.80299
C      8.27386   -0.56812    7.82361
C      1.04943   -1.73637   -0.69697
C      3.37680   -1.63260   -0.08546
C      6.70083   -0.04908    5.56512
C      8.64648   -1.07904    6.58097
C      0.72081   -1.98072    0.63836
C      3.04967   -1.87842    1.26201
C      7.85248   -0.85182    5.43827
C      1.69651   -2.05844    1.64235
C      4.17175   -1.93471    2.21211
C      6.16434   -1.84990    2.90245
C      8.31568   -1.40621    4.16854
C      7.62121   -1.76882    3.05332
C      1.26404   -2.32794    3.06267
N      8.99140   -2.47085    0.95393
N      5.48267   -1.73060    1.79971
N      4.06491   -2.17481    3.50864
O      5.39420   -2.13082    3.97343
H      6.82958    0.61995    8.90289
H      2.65731   -1.37241   -2.09728
H      5.45652    1.10205    6.88411
H      8.88801   -0.76749    8.69733
H      0.26398   -1.68407   -1.44666
H      4.42015   -1.50132   -0.35010
H      6.10138    0.18763    4.69356
H      9.55207   -1.67444    6.49122
H     -0.32213   -2.11651    0.91388
H      9.39370   -1.53701    4.09659
H      1.71567   -3.24470    3.45293
H      1.57686   -1.52582    3.73772
H      0.17652   -2.42436    3.11558
