34

C     -0.44699   -2.95456  -12.97636
C      2.75172    2.89300   -5.10746
C      2.92753    2.14711   -3.92856
C      2.19070    2.31499   -6.24652
C      2.54260    0.80444   -3.86939
C     -0.14797   -3.13410  -10.46349
C     -0.79374   -3.37160  -11.66770
C     -0.89486   -3.79886   -9.44346
C      1.79994    0.96881   -6.20539
C      1.98225    0.22781   -5.01056
C     -1.98303   -4.42455  -10.07468
C      0.98314   -0.96001   -6.89408
C     -0.60072   -3.90888   -8.01553
C     -3.09253   -5.24138   -9.49470
C     -2.88912   -4.58513  -12.41155
N     -0.17845   -2.62060  -14.06275
N      1.22902    0.26200   -7.25900
N      0.01713   -3.07836   -7.24286
N     -1.91296   -4.16007  -11.41545
N      0.45251   -1.89419   -7.75585
S      1.40058   -1.42170   -5.23564
H      3.05811    3.93539   -5.13116
H      3.36719    2.61618   -3.05266
H      2.05110    2.88293   -7.16171
H      2.67866    0.22959   -2.95746
H      0.78936   -2.60467  -10.36276
H     -0.93153   -4.80929   -7.50258
H     -4.07304   -4.80650   -9.72000
H     -3.08842   -6.26627   -9.88404
H     -2.99917   -5.29319   -8.40932
H     -3.03656   -5.66651  -12.35852
H     -3.84810   -4.08306  -12.25157
H     -2.51982   -4.32965  -13.40450
H      0.05354   -1.51632   -8.61479
