44

C     -2.66927    6.22883   -3.63956
C     -1.96632    4.01301   -2.93113
C     -1.74490    5.13972   -3.69444
C     -3.78734    6.14972   -2.85316
C     -3.13807    3.89464   -2.08683
C      1.64546    0.07350    1.66805
C     -1.08166    2.79966   -3.07873
C     -0.08816    0.21882   -1.05555
C     -0.84067    2.16690    0.35832
C      0.48171    1.21165   -2.07438
C     -0.28277    3.10840   -0.71723
C     -0.65828   -0.16889    1.40444
C     -0.11958    0.82282    0.35437
C     -0.55635    5.24088   -4.61809
C     -4.82720    7.22641   -2.73250
C      0.57751   -1.69010    3.01972
N     -3.98567    5.01219   -2.11729
N      0.56843   -0.74514    1.92128
N     -0.27986    2.46102   -2.02745
O     -3.43320    2.92844   -1.36784
O      2.76882   -0.01280    2.12133
O     -1.08344    2.17990   -4.14755
O      1.26369    1.04521    0.78018
H     -2.49388    7.12341   -4.22690
H     -1.11083   -0.04411   -1.34778
H      0.51039   -0.69872   -1.04616
H     -0.73230    2.62975    1.34539
H     -1.90434    2.00534    0.16248
H      1.53051    1.42715   -1.84216
H      0.41878    0.81577   -3.08686
H     -0.86760    4.02595   -0.76139
H      0.74928    3.38331   -0.46806
H     -1.22709    0.34324    2.19595
H     -1.30466   -0.92838    0.95299
H     -0.30188    6.28498   -4.81931
H     -0.78838    4.75097   -5.56954
H      0.32124    4.73601   -4.20807
H     -5.80929    6.86002   -3.05306
H     -4.56407    8.08441   -3.35306
H     -4.92066    7.56888   -1.69538
H      0.07983   -1.27788    3.90893
H      1.61527   -1.91559    3.26863
H      0.06737   -2.61396    2.72814
H     -4.80909    4.92245   -1.52905
