41

C      4.71292   -3.37767   -2.03173
C      4.03819   -2.71610   -3.06438
C      4.67847   -2.84870   -0.73794
C      3.33577   -1.53701   -2.80319
C      3.97055   -1.66999   -0.48024
C      3.29221   -1.00054   -1.50714
C      1.15393    0.33540   -1.88803
C     -1.99935    0.45272   -1.58626
C     -0.84849   -1.86817    0.35066
C     -1.05970   -0.57177   -2.22891
C      0.41975   -1.59093   -0.46994
C     -3.01632    1.34912    0.55568
C     -2.60202    0.07202   -0.22108
C     -1.72236   -0.68886    0.79370
C      2.53096    0.28229   -1.23255
N     -1.81119    1.93515    1.17988
N      0.22505   -0.61327   -1.53487
O      0.89006    1.19486   -2.73623
O      0.53352    0.88754    1.29007
O     -1.10380    0.40448    3.16781
S     -0.84280    0.63931    1.74685
H      5.26001   -4.29485   -2.23421
H      4.06159   -3.11834   -4.07425
H      5.20000   -3.35347    0.07153
H      2.81480   -1.02657   -3.61031
H      3.94279   -1.26760    0.53040
H     -1.42998    1.38451   -1.51686
H     -2.83356    0.65688   -2.26824
H     -1.51244   -2.54801   -0.19474
H     -0.53477   -2.41865    1.24426
H     -1.49442   -1.57593   -2.23947
H     -0.87384   -0.27879   -3.26326
H      1.19221   -1.22456    0.19850
H      0.77293   -2.54597   -0.88118
H     -3.46687    2.09990   -0.09682
H     -3.73253    1.11520    1.34916
H     -3.48730   -0.55136   -0.39334
H     -2.39921   -1.07076    1.56422
H      2.43065    0.45254   -0.15759
H      3.07125    1.13725   -1.64715
H     -1.24494    2.45175    0.50640
