31

C      0.47933    4.28446    1.49983
C      0.48980    5.62535    1.82947
C      2.19149   -2.73193    0.59393
C      1.07010   -3.15764   -0.06779
C      0.11320   -2.10894   -0.27022
C     -0.66103    3.79989    0.83459
C      0.53112   -0.89916    0.25539
C     -0.63055    6.40042    1.47878
C     -0.73364    2.37566    0.45484
C     -0.14193    0.36952    0.24758
C     -0.52895   -4.68626   -0.79265
C     -1.12081   -3.55746   -1.62066
C     -0.70949    7.86998    1.79685
N     -1.70573    4.57742    0.52070
N     -1.68839    5.86931    0.84181
N      0.30040    1.50590    0.73387
N     -1.76036    1.82992   -0.16410
O     -1.36940    0.48161   -0.30606
O      0.86038   -4.43678   -0.51004
O     -1.07232   -2.30854   -0.90043
S      2.11328   -1.04740    0.99009
H      1.29982    3.61380    1.73149
H      1.33407    6.07698    2.34445
H      3.05184   -3.32739    0.86923
H     -1.07877   -4.79809    0.15016
H     -0.56185   -5.62755   -1.34438
H     -0.57385   -3.44630   -2.56424
H     -2.17621   -3.73776   -1.83185
H      0.11345    8.41735    1.32405
H     -1.65638    8.27484    1.43641
H     -0.63903    8.04068    2.87682
