27

C      0.05026    3.93317   -1.45293
C      2.89008   -0.22504    1.18363
C      1.67892    0.36130    1.55632
C      2.97606   -1.59864    0.94417
C      0.61475   -1.81757    1.48357
C     -1.05442    4.04799   -0.57403
C      0.52248   -0.43019    1.69769
C      1.82990   -2.38219    1.10369
C     -1.36112    3.18375    0.45625
C     -2.82865    4.79156    0.37050
C     -0.78935    0.11676    2.10480
C     -4.04958    5.50417    0.82652
N      0.98598    3.76808   -2.13256
N     -2.01858    5.06761   -0.59584
N     -1.35624    1.23051    1.78358
N     -0.70815    2.07993    0.93147
O     -2.47787    3.63235    1.07011
Cl     1.92341   -4.11113    0.82620
H      3.77855    0.39148    1.08159
H      1.64948    1.42215    1.78419
H      3.91426   -2.05694    0.64857
H     -0.26137   -2.44806    1.60416
H     -1.40404   -0.50950    2.74932
H     -4.92990    4.85773    0.75063
H     -3.95233    5.81795    1.87078
H     -4.19511    6.38377    0.19880
H      0.05668    1.73933    0.34800
