20

C      2.01724   -4.90101   -1.77451
C      1.22321   -1.79655   -0.18955
C      0.17467   -1.21656    0.52823
C      1.38398   -1.61193    2.60144
C      2.35871   -2.28389    0.46375
C      2.41539   -2.17305    1.85895
C      0.26292   -1.13323    1.91916
C      2.52247   -5.10293   -0.41095
C      3.70664   -4.18038   -0.07744
N      1.61749   -4.72125   -2.85131
O      3.39826   -2.79552   -0.27777
F      3.51352   -2.63033    2.51216
Cl    -1.04910   -0.41604    2.83408
H      1.17727   -1.88340   -1.27079
H     -0.70248   -0.83986    0.01299
H      1.47015   -1.54442    3.68067
H      1.69805   -4.93543    0.28946
H      2.83935   -6.14529   -0.29747
H      4.54492   -4.37750   -0.74736
H      4.02320   -4.36564    0.95347
