25   
Generated by ForceBalance from scan.xyz: Frame 1 of 24
C       -3.6642375686   -2.7532990726   -1.6083140880
C       -2.4512035387   -2.4884005595   -2.2561314548
C       -3.7054820315   -2.7899904753   -0.2120951100
C       -1.2907703323   -2.2633988225   -1.5133565721
C       -2.5403504848   -2.5622464426    0.5298506212
C       -1.3219419268   -2.2985682540   -0.1094988659
C        0.5730345812   -0.7147851819    0.2764497855
C        0.9573664805   -3.2025180999    0.5434143961
C        0.2045834901    1.7199326835    0.1973910327
C       -0.0526721090   -2.0577802569    0.6940565779
N       -0.1348411948    0.3866708457    0.6785441881
O        1.6203052071   -0.6330223664   -0.3624955638
H       -4.5671563079   -2.9284831396   -2.1875049292
H       -2.4115473953   -2.4554842261   -3.3420955400
H       -4.6415696856   -2.9964024731    0.3008106445
H       -0.3536882064   -2.0498231070   -2.0221164418
H       -2.5785904288   -2.5981595424    1.6171004900
H        1.2898226610   -3.2915638038   -0.4929209617
H        1.8416540564   -3.0215833924    1.1607558562
H        0.4972856454   -4.1476939087    0.8470548357
H       -0.2444256286    2.4660505467    0.8576412280
H        1.2891943532    1.8336827193    0.2116962164
H       -0.1450102781    1.8884766905   -0.8292439285
H       -0.3349049630   -1.9742400576    1.7503889683
H       -1.0823707140    0.2291672332    0.9988823370
25   
Generated by ForceBalance from scan.xyz: Frame 2 of 24
C       -3.6677904789   -2.8717143381   -1.6542745234
C       -2.4551073621   -2.5996905837   -2.2991494068
C       -3.7247920124   -2.8548563147   -0.2580454592
C       -1.3082004543   -2.3149252527   -1.5549987803
C       -2.5739444664   -2.5665007663    0.4844144309
C       -1.3550284595   -2.2959159183   -0.1516015427
C        0.5084647741   -0.6742306547    0.1879711318
C        0.9279326767   -3.1347196146    0.5774001433
C        0.3052688602    1.7784971254    0.2844744848
C       -0.1034812185   -2.0004853106    0.6637137592
N       -0.0123543409    0.4448498034    0.7805296614
O        1.3935455070   -0.6196528947   -0.6646665424
H       -4.5590427333   -3.0937896046   -2.2355424266
H       -2.4042136107   -2.6076775951   -3.3851534818
H       -4.6607507061   -3.0658598172    0.2533521620
H       -0.3717305809   -2.0935438854   -2.0601193833
H       -2.6238996219   -2.5610966838    1.5717990440
H        1.2796696118   -3.2547398369   -0.4492198052
H        1.7968273881   -2.9172830026    1.2061961106
H        0.4776808864   -4.0755198175    0.9079333052
H        0.0831354212    2.5147371961    1.0609521797
H        1.3683389015    1.8191650658    0.0440604783
H       -0.2621775325    2.0251238182   -0.6216888556
H       -0.4062937449   -1.8819901975    1.7106989259
H       -0.8639009580    0.3298242023    1.3151502840
25   
Generated by ForceBalance from scan.xyz: Frame 3 of 24
C       -3.6820777023   -3.0496001606   -1.6916866546
C       -2.4738135098   -2.7703553681   -2.3412348165
C       -3.7497266739   -2.9620273839   -0.2985058670
C       -1.3414127353   -2.4094856847   -1.6073958548
C       -2.6150467870   -2.5975262869    0.4347701457
C       -1.4007453517   -2.3194037305   -0.2073642994
C        0.4356893314   -0.6409629848    0.0928744106
C        0.8938141643   -3.0642373764    0.5900690217
C        0.5051932643    1.8065722990    0.3898956239
C       -0.1694351145   -1.9530035337    0.6093210154
N        0.1318229438    0.4688049424    0.8321819722
O        1.1544795365   -0.5937355674   -0.9055412664
H       -4.5610571249   -3.3310030217   -2.2660577041
H       -2.4142915697   -2.8319546771   -3.4251052817
H       -4.6822017743   -3.1763510223    0.2178510899
H       -0.4098072103   -2.1791917543   -2.1159044341
H       -2.6747514625   -2.5357441524    1.5199395128
H        1.2773744811   -3.2043159047   -0.4227657178
H        1.7368019414   -2.8062744317    1.2394888793
H        0.4578292452   -4.0063975588    0.9352226826
H        0.5311242602    2.4786789801    1.2513282516
H        1.4966906505    1.7610154510   -0.0623494333
H       -0.1955469356    2.2015033542   -0.3560552416
H       -0.4913623238   -1.8046240545    1.6467841446
H       -0.5821680386    0.3812799556    1.5427028923
25   
Generated by ForceBalance from scan.xyz: Frame 4 of 24
C       -3.8106322319   -3.2784679590   -1.6835203052
C       -2.5775982907   -3.1427358101   -2.3322021409
C       -3.8690462712   -3.1750221212   -0.2911052367
C       -1.4117639069   -2.9093048655   -1.5989505603
C       -2.7006115857   -2.9381186220    0.4413221984
C       -1.4612259012   -2.8037043301   -0.1995512073
C        0.5767809533   -1.3517833133    0.1455614582
C        0.7317299427   -3.8084921290    0.6035578704
C        1.2952399623    0.9403719717    0.6987254590
C       -0.2027888286   -2.5830855334    0.6253297098
N        0.6635687806   -0.3266903790    1.0475619748
O        1.1349007231   -1.3096536008   -0.9509137596
H       -4.7154143304   -3.4612585485   -2.2577648708
H       -2.5243152098   -3.2168545579   -3.4156472641
H       -4.8202651860   -3.2775571924    0.2253858507
H       -0.4605241425   -2.7863482136   -2.1067233508
H       -2.7548917260   -2.8616472590    1.5258389050
H        1.1033484704   -3.9830657851   -0.4087909894
H        1.5926957887   -3.6524274069    1.2621459366
H        0.1904590839   -4.6990428323    0.9364717943
H        1.5623919439    1.4732589470    1.6145699285
H        2.1991049971    0.7363542512    0.1229436871
H        0.6366105622    1.5723680363    0.0906928626
H       -0.5143040677   -2.4173834451    1.6633129353
H        0.0574114393   -0.3529020928    1.8559908796
25   
Generated by ForceBalance from scan.xyz: Frame 5 of 24
C       -3.8307449638   -3.4156001197   -1.7036882461
C       -2.5879733191   -3.2993496909   -2.3373135673
C       -3.9188959987   -3.2226837178   -0.3225168765
C       -1.4411175668   -2.9974178420   -1.5994304074
C       -2.7693633834   -2.9176634067    0.4145340786
C       -1.5202451813   -2.8025305415   -0.2109843198
C        0.4534778968   -1.2458376222    0.1534154398
C        0.7151287977   -3.6819912347    0.6275423681
C        1.4402793504    0.9035998112    0.8533877615
C       -0.2861827634   -2.5069237919    0.6227376262
N        0.7521166030   -0.3484956571    1.1424802152
O        0.8309520643   -1.0893967293   -1.0071961204
H       -4.7206470866   -3.6524524370   -2.2814798639
H       -2.5122394436   -3.4420133071   -3.4125447417
H       -4.8782748441   -3.3087315334    0.1817265627
H       -0.4847865270   -2.8857875676   -2.0987738845
H       -2.8467997271   -2.7706347735    1.4903704039
H        1.0929383681   -3.8650286271   -0.3813767262
H        1.5682624377   -3.4641085741    1.2786537401
H        0.2236498644   -4.5920204089    0.9842002682
H        1.9118253026    1.2751617381    1.7666097409
H        2.2073799177    0.7172192267    0.1003494591
H        0.7556630097    1.6666339972    0.4637286479
H       -0.6182602384   -2.3523930957    1.6562468666
H        0.3016853053   -0.4548254566    2.0406990160
25   
Generated by ForceBalance from scan.xyz: Frame 6 of 24
C       -3.8354581846   -3.5189808052   -1.7417247321
C       -2.5873016929   -3.3869916681   -2.3614678780
C       -3.9501924790   -3.2791655624   -0.3699431903
C       -1.4622814241   -3.0220894867   -1.6186431627
C       -2.8218380829   -2.9119855174    0.3714492386
C       -1.5674428537   -2.7796611573   -0.2395622115
C        0.3455739121   -1.1348759576    0.1302161031
C        0.6878060239   -3.5558945417    0.6458148341
C        1.5790504835    0.8697984928    0.8767300076
C       -0.3583638186   -2.4186232486    0.6003708966
N        0.8673597858   -0.3739475838    1.1425377103
O        0.5228609867   -0.8556584653   -1.0539341126
H       -4.7087659728   -3.8041120410   -2.3230417589
H       -2.4907637635   -3.5654428263   -3.4296465358
H       -4.9139516240   -3.3766966671    0.1237162961
H       -0.5040257622   -2.8988921121   -2.1108630389
H       -2.9205102626   -2.7274904594    1.4397630801
H        1.0948910736   -3.7433732161   -0.3514397651
H        1.5179964278   -3.2979368888    1.3112060050
H        0.2224643174   -4.4786310337    1.0047586836
H        2.2367267406    1.0968411490    1.7197207481
H        2.1786990429    0.7453098310   -0.0260726090
H        0.8919598011    1.7099704926    0.7187541522
H       -0.7093631444   -2.2578289488    1.6271033006
H        0.5777006100   -0.5693868371    2.0907694474
25   
Generated by ForceBalance from scan.xyz: Frame 7 of 24
C       -3.8158314806   -3.5979121904   -1.7762003703
C       -2.5603370291   -3.4323418565   -2.3728918410
C       -3.9670222127   -3.3462676032   -0.4102352298
C       -1.4642875764   -3.0216588160   -1.6116299534
C       -2.8663612577   -2.9339684296    0.3490479009
C       -1.6051686546   -2.7680784782   -0.2380908666
C        0.2439803579   -1.0544563997    0.1536827377
C        0.6442775431   -3.4785058239    0.7029118470
C        1.6826760985    0.8217843215    0.8684862873
C       -0.4241989937   -2.3627635467    0.6184276700
N        0.9910952858   -0.4356116483    1.1223355898
O        0.1955161322   -0.6319844280   -0.9989019748
H       -4.6674134626   -3.9173774354   -2.3717112207
H       -2.4365320006   -3.6185331809   -3.4369010445
H       -4.9372536845   -3.4689591957    0.0647630467
H       -0.5014487761   -2.8735307329   -2.0885364369
H       -2.9928025031   -2.7391973310    1.4125932173
H        1.0811302279   -3.6700955580   -0.2813978762
H        1.4544167214   -3.2037005565    1.3852735603
H        0.1868402541   -4.4069863312    1.0569683183
H        2.5028553362    0.9333831416    1.5823947710
H        2.0865620775    0.8023431893   -0.1446881521
H        1.0112040859    1.6850601309    0.9529542291
H       -0.7987644869   -2.1950639157    1.6362574382
H        0.8849220486   -0.7398914502    2.0804365838
25   
Generated by ForceBalance from scan.xyz: Frame 8 of 24
C       -3.7736573702   -3.6386273545   -1.8100818749
C       -2.5138637101   -3.4104778928   -2.3768728078
C       -3.9649175276   -3.4110237600   -0.4451445444
C       -1.4548647386   -2.9621246625   -1.5858917367
C       -2.8999420892   -2.9616870384    0.3438796197
C       -1.6355033822   -2.7344187781   -0.2129583459
C        0.1514163308   -0.9710077798    0.2195984641
C        0.5813995466   -3.4150068118    0.7978833649
C        1.7527164158    0.8015763430    0.8408824993
C       -0.4856570231   -2.3019423289    0.6720965632
N        1.1089838985   -0.4853464174    1.0726797157
O       -0.1290389806   -0.3981717088   -0.8299098343
H       -4.5975472658   -3.9861673973   -2.4283761606
H       -2.3592939130   -3.5758347354   -3.4402666367
H       -4.9393063938   -3.5805328641    0.0063172304
H       -0.4891286253   -2.7662821551   -2.0411026775
H       -3.0578737319   -2.7852598288    1.4063774566
H        1.0632852258   -3.6007125633   -0.1665244347
H        1.3632166269   -3.1570238695    1.5187092028
H        0.1084726541   -4.3461063589    1.1231362188
H        2.6916979061    0.8393219299    1.3989337989
H        1.9625497016    0.9053060684   -0.2246590050
H        1.1168661540    1.6413499996    1.1471810427
H       -0.8913764099   -2.1246797128    1.6767634399
H        1.2059102227   -0.9112983364    1.9840655251
25   
Generated by ForceBalance from scan.xyz: Frame 9 of 24
C       -3.7108317834   -3.6701467665   -1.8515278060
C       -2.4538128258   -3.3576378336   -2.3835760252
C       -3.9437360222   -3.4935943853   -0.4855659041
C       -1.4388481965   -2.8767336560   -1.5553775705
C       -2.9225025346   -3.0117878498    0.3413846401
C       -1.6620491813   -2.7010988360   -0.1814408019
C        0.0682518683   -0.9060578384    0.2985378610
C        0.5021119354   -3.3735140379    0.9146979970
C        1.8210997211    0.7678413410    0.7592025847
C       -0.5469892513   -2.2510137153    0.7413682879
N        1.2035459710   -0.5352895077    0.9708527574
O       -0.4165351243   -0.2012486114   -0.5830563945
H       -4.5014519294   -4.0421241661   -2.4983188552
H       -2.2681786667   -3.4822073694   -3.4475493716
H       -4.9175856095   -3.7271254660   -0.0624257036
H       -0.4747440599   -2.6159770061   -1.9828144607
H       -3.1123765816   -2.8743114541    1.4043809088
H        1.0530560016   -3.5413409836   -0.0152409062
H        1.2295752827   -3.1560561053    1.7041048672
H       -0.0005746545   -4.3073990140    1.1812584698
H        2.8582878846    0.7331089991    1.1018865025
H        1.8007782500    1.0020331045   -0.3061583114
H        1.2908848568    1.5654972392    1.2938800674
H       -0.9909577844   -2.0579872180    1.7268716492
H        1.5012834624   -1.0825003465    1.7655280873
25   
Generated by ForceBalance from scan.xyz: Frame 10 of 24
C       -3.5421105551   -2.9466738001   -1.9279408061
C       -2.2087731614   -3.0242092427   -2.3484402017
C       -3.8330391207   -2.4654630597   -0.6490966787
C       -1.1770424320   -2.6283652672   -1.4960574267
C       -2.7941301106   -2.0702045126    0.2012221790
C       -1.4587190257   -2.1479715655   -0.2087903520
C        0.6186248096   -0.7507187608    0.1293010661
C        0.3455384837   -3.0704732087    1.2738654291
C        2.8830667776    0.2190457388    0.1359427931
C       -0.3385736730   -1.7893646853    0.7500799489
N        1.8899422620   -0.7228758537    0.6369260628
O        0.2443127552    0.0591898868   -0.7158176009
H       -4.3449210394   -3.2523339866   -2.5940905152
H       -1.9748428801   -3.3873610866   -3.3461237623
H       -4.8647333105   -2.3932124124   -0.3138436496
H       -0.1472415000   -2.6740986697   -1.8421883082
H       -3.0281752391   -1.6912779501    1.1942390758
H        0.9127714117   -3.5713760329    0.4828069076
H        1.0168124307   -2.8720195039    2.1177753818
H       -0.4136408489   -3.7722622744    1.6293720094
H        3.3034269203   -0.1021131214   -0.8248723444
H        2.4120260254    1.1925395445   -0.0088728483
H        3.6894912974    0.3116066808    0.8676100072
H       -0.7856850678   -1.2742706146    1.6094213221
H        2.2017042563   -1.4807234119    1.2254243495
25   
Generated by ForceBalance from scan.xyz: Frame 11 of 24
C       -3.4454163173   -2.9393002583   -1.9707245654
C       -2.0957244386   -2.9966070476   -2.3382422677
C       -3.7933650171   -2.4784136825   -0.6983990732
C       -1.1066191864   -2.6003887005   -1.4366598168
C       -2.7967907438   -2.0816489072    0.2002490172
C       -1.4453279848   -2.1394939224   -0.1560086082
C        0.5686028403   -0.6929865979    0.2515632632
C        0.3333244277   -3.0411238881    1.3694177082
C        2.8682502661    0.1534429252    0.0143231174
C       -0.3619166918   -1.7702088536    0.8431515944
N        1.9032027391   -0.8103401068    0.5284919910
O        0.1190521777    0.2624026074   -0.3779757850
H       -4.2170929216   -3.2446617350   -2.6727626989
H       -1.8164259980   -3.3441574940   -3.3298278042
H       -4.8389133570   -2.4219472686   -0.4058472253
H       -0.0618898378   -2.6335561972   -1.7390153089
H       -3.0756276308   -1.7157138887    1.1863195133
H        0.8839612907   -3.5560923269    0.5749099104
H        1.0194384822   -2.8245100246    2.1966804774
H       -0.4173262545   -3.7408096975    1.7469421951
H        3.0969858919   -0.0225028233   -1.0437535091
H        2.4548877854    1.1589015142    0.1085810560
H        3.7896948994    0.0833733551    0.5975743391
H       -0.8451464700   -1.2717341370    1.6915926939
H        2.2485319810   -1.6639369038    0.9409153465
25   
Generated by ForceBalance from scan.xyz: Frame 12 of 24
C       -3.3600624009   -2.9157358372   -2.0168412403
C       -1.9953587708   -2.9879317622   -2.3200039760
C       -3.7621126172   -2.4518238770   -0.7615036474
C       -1.0450318050   -2.6047617769   -1.3717923264
C       -2.8052465689   -2.0668628128    0.1840014100
C       -1.4390220682   -2.1416146045   -0.1075557809
C        0.5099000873   -0.6518846054    0.3886587785
C        0.3200971935   -3.0307151353    1.4546845062
C        2.7963197604    0.1118063898   -0.1110389033
C       -0.3965575813   -1.7705781980    0.9359179630
N        1.8585926524   -0.8740786404    0.4114172789
O        0.0320438899    0.4098935349   -0.0066837754
H       -4.1011848279   -3.2120055397   -2.7547570187
H       -1.6735864623   -3.3381554468   -3.2976792061
H       -4.8196338990   -2.3837819915   -0.5187314006
H        0.0127308344   -2.6527580990   -1.6237093710
H       -3.1256396887   -1.6966265007    1.1554098244
H        0.8598247816   -3.5498754285    0.6547954811
H        1.0205950038   -2.7972828307    2.2645138778
H       -0.4168011363   -3.7369273269    1.8475026529
H        2.8387876963    0.0927036875   -1.2066138058
H        2.4771835576    1.1086051030    0.1980279237
H        3.7916844726   -0.0921507769    0.2910633100
H       -0.9179976379   -1.3016596731    1.7768808866
H        2.2051785361   -1.7891555969    0.6577241900
25   
Generated by ForceBalance from scan.xyz: Frame 13 of 24
C       -3.2771335069   -2.8915018007   -2.0599596512
C       -1.9022447806   -2.9645952047   -2.3113379459
C       -3.7266603830   -2.4420778655   -0.8152862925
C       -0.9885127433   -2.5962186693   -1.3217278536
C       -2.8065302835   -2.0716221249    0.1712407353
C       -1.4295587747   -2.1475908756   -0.0674053386
C        0.4722165518   -0.6388542991    0.5183274692
C        0.2941616625   -3.0302511158    1.5481950034
C        2.7082041485    0.0518211606   -0.2495998102
C       -0.4302640871   -1.7790768812    1.0201712759
N        1.7852481486   -0.9398528279    0.2875370702
O        0.0217366544    0.4929710219    0.3497458695
H       -3.9899048686   -3.1763408779   -2.8295561083
H       -1.5435060084   -3.3040060992   -3.2799415053
H       -4.7925991510   -2.3739900738   -0.6128010686
H        0.0776274824   -2.6450533243   -1.5340734707
H       -3.1630654092   -1.7115280563    1.1336164105
H        0.8146841526   -3.5716164221    0.7499822946
H        1.0151025487   -2.7783567571    2.3335620675
H       -0.4362438402   -3.7263189580    1.9707419066
H        2.6025404876    0.1587964078   -1.3358011095
H        2.4987954532    1.0198973051    0.2085728497
H        3.7330991706   -0.2467453554   -0.0159068701
H       -0.9879373215   -1.3285459023    1.8461950513
H        2.0988141232   -1.8939426338    0.3869371646
25   
Generated by ForceBalance from scan.xyz: Frame 14 of 24
C       -3.1911602523   -2.7089105416   -2.0444108540
C       -2.1158828173   -3.5832646345   -1.8752698719
C       -3.3453194027   -1.6324500785   -1.1622662597
C       -1.2008388337   -3.3842116261   -0.8337891621
C       -2.4329365974   -1.4361339895   -0.1248634672
C       -1.3466646000   -2.3101022488    0.0544320723
C        0.3309795333   -0.6945129508    0.9238472504
C        0.5941021971   -3.2054746859    1.4903970585
C        2.2503093436    0.4760228055   -0.0709622335
C       -0.3614434594   -2.0434858738    1.1945477024
N        1.5734437262   -0.7413646842    0.3601697938
O       -0.2156269749    0.3702097368    1.2136538232
H       -3.9026507675   -2.8638500482   -2.8515248809
H       -1.9865084231   -4.4253289184   -2.5508421596
H       -4.1785092242   -0.9445865596   -1.2832368574
H       -0.3797322610   -4.0852369201   -0.7206812455
H       -2.5446894927   -0.5899493536    0.5470029781
H        1.2229265865   -3.4784014226    0.6361461511
H        1.2572405610   -2.9538817200    2.3230502257
H        0.0271301481   -4.1000423295    1.7653129292
H        1.8050836553    0.8873468170   -0.9847506811
H        2.1697691228    1.2286200600    0.7151003226
H        3.3046291628    0.2530260461   -0.2508319406
H       -0.9503199066   -1.8521320045    2.0964308581
H        1.9099390988   -1.6264131056    0.0087459729
25   
Generated by ForceBalance from scan.xyz: Frame 15 of 24
C       -3.7826943005   -2.8157242417   -1.7845176674
C       -2.7716356959   -3.7766709644   -1.8452255937
C       -3.6137785784   -1.6899134354   -0.9687598306
C       -1.5976356401   -3.6147433422   -1.0985016218
C       -2.4439029811   -1.5314292261   -0.2251279669
C       -1.4186914001   -2.4919232061   -0.2794075568
C        0.5167534639   -0.9640182036    0.0184820147
C        0.8089570763   -3.4516758939    0.5962464223
C        1.8459085654    0.0685713854   -1.7764809822
C       -0.1465969042   -2.2535909290    0.5337213763
N        1.3134922243   -1.0988580278   -1.0843644836
O        0.3366530410    0.1190750487    0.5749515831
H       -4.6942650413   -2.9419874085   -2.3629583262
H       -2.8939962194   -4.6576268473   -2.4706487932
H       -4.3950233484   -0.9359740504   -0.9123026350
H       -0.8316357133   -4.3821498691   -1.1547174280
H       -2.3104107114   -0.6509518780    0.3984001968
H        1.1703749658   -3.7674381117   -0.3874427827
H        1.6854694599   -3.2045364710    1.2019416492
H        0.3106145851   -4.3123696635    1.0530631243
H        1.0864387463    0.5568732299   -2.3997447956
H        2.1941103811    0.7891220777   -1.0354607182
H        2.6860203661   -0.2379997476   -2.4045911996
H       -0.4459150473   -2.0006897952    1.5543998366
H        1.2544708010   -1.9664060631   -1.6006700363
25   
Generated by ForceBalance from scan.xyz: Frame 16 of 24
C       -3.6949655700   -2.8080863338   -1.8518520381
C       -2.6789778298   -3.7652798474   -1.8795154801
C       -3.5601754831   -1.6863885980   -1.0236672890
C       -1.5337118152   -3.6036752983   -1.0887070900
C       -2.4187806840   -1.5284310892   -0.2373634970
C       -1.3877833939   -2.4842527326   -0.2583757821
C        0.5746063321   -0.9750133745    0.0753533178
C        0.8117806801   -3.4296969399    0.7014794231
C        1.7175653732    0.0608219798   -1.8425188851
C       -0.1454341806   -2.2344526342    0.5909960128
N        1.1450095437   -1.0948095486   -1.1631412221
O        0.6528609105    0.0528116265    0.7468840109
H       -4.5841833293   -2.9340162513   -2.4640698530
H       -2.7756300668   -4.6436617710   -2.5129399205
H       -4.3463021279   -0.9361766564   -0.9912034337
H       -0.7630933904   -4.3681849357   -1.1183638254
H       -2.3152061345   -0.6520910797    0.3987243230
H        1.2245717396   -3.7293713144   -0.2661468310
H        1.6546172395   -3.1738658854    1.3500574236
H        0.2989294044   -4.2944143016    1.1343825635
H        0.9440178530    0.7107412906   -2.2707158693
H        2.2926405667    0.6437154831   -1.1220668738
H        2.3813300869   -0.2830845221   -2.6397460811
H       -0.4712369340   -1.9584455265    1.5970668277
H        0.8335888316   -1.8684634492   -1.7372525991
25   
Generated by ForceBalance from scan.xyz: Frame 17 of 24
C       -3.6421678397   -2.8591884910   -1.8753201543
C       -2.5949258211   -3.7818789498   -1.9164699527
C       -3.5565046775   -1.7613074192   -1.0097385355
C       -1.4680722080   -3.6089800967   -1.1022258319
C       -2.4321423556   -1.5921075185   -0.2012030545
C       -1.3693445230   -2.5117011066   -0.2350369385
C        0.6507069961   -1.0348756812    0.1065018667
C        0.7965046683   -3.4473902640    0.8028995924
C        1.6782309429    0.0168483660   -1.8686466502
C       -0.1459008142   -2.2451550909    0.6310579979
N        0.9930384396   -1.0914195402   -1.2165600527
O        1.0111641330   -0.1236313950    0.8503531272
H       -4.5175228444   -2.9940156784   -2.5053082092
H       -2.6532622777   -4.6423476552   -2.5784685858
H       -4.3675510557   -1.0387723502   -0.9654609094
H       -0.6718429604   -4.3462659163   -1.1429383237
H       -2.3694229535   -0.7340350536    0.4649915183
H        1.2471604165   -3.7553288062   -0.1448531284
H        1.6105074367   -3.1839912269    1.4841902356
H        0.2594429310   -4.3027710595    1.2248713014
H        0.9935761152    0.8405579498   -2.1068801036
H        2.4505581809    0.3981254957   -1.1992584413
H        2.1440885917   -0.3408859172   -2.7903193059
H       -0.4871671461   -1.9304691503    1.6204733848
H        0.4754476219   -1.7382917598   -1.7987705842
25   
Generated by ForceBalance from scan.xyz: Frame 18 of 24
C       -3.6515498145   -2.9270355600   -1.9913286858
C       -2.5681028444   -3.8066380092   -2.0469199785
C       -3.5929084990   -1.8173148831   -1.1389165574
C       -1.4317723803   -3.5797257633   -1.2599612293
C       -2.4578696184   -1.5946246336   -0.3583591301
C       -1.3583381494   -2.4694183508   -0.4061712616
C        0.7011222868   -0.9869386375   -0.1611279882
C        0.8141324485   -3.3361383246    0.6760011222
C        1.5406228880    0.0924872859   -2.2088343184
C       -0.1284681521   -2.1457725758    0.4265718710
N        0.7972022771   -0.9549810670   -1.5225269291
O        1.3019373958   -0.1978975239    0.5680579467
H       -4.5342732279   -3.1046411198   -2.6000230074
H       -2.6053334362   -4.6753397668   -2.6995787592
H       -4.4319971359   -1.1284149551   -1.0828577262
H       -0.6049120238   -4.2814592337   -1.3134255480
H       -2.4166839366   -0.7279471527    0.2984607652
H        1.2698218236   -3.6957307969   -0.2513833219
H        1.6217260632   -3.0290168581    1.3454866573
H        0.2740407972   -4.1667849373    1.1410869504
H        0.9685200446    1.0263707855   -2.2723041094
H        2.4615202888    0.2941074483   -1.6593835632
H        1.7879975407   -0.2452855254   -3.2183020581
H       -0.4616796640   -1.7699974263    1.3978981413
H        0.1443957025   -1.5160267358   -2.0545677556
25   
Generated by ForceBalance from scan.xyz: Frame 19 of 24
C       -3.6280483125   -2.9538901921   -1.9960089071
C       -2.5016207028   -3.7745667609   -2.1005220314
C       -3.6194574467   -1.8875484029   -1.0893276082
C       -1.3746385949   -3.5307101722   -1.3071466036
C       -2.4914259279   -1.6473179096   -0.3018629500
C       -1.3505456476   -2.4618825211   -0.3973951098
C        0.7821694539   -1.0492977019   -0.1803315093
C        0.7480171059   -3.3394197036    0.8065503211
C        1.5160720492    0.1027727775   -2.2272666275
C       -0.1295403071   -2.1278922829    0.4408729853
N        0.7081389357   -0.8894521583   -1.5321053397
O        1.5751167563   -0.4194622193    0.5205790379
H       -4.5046163444   -3.1449077906   -2.6095053566
H       -2.4991360527   -4.6092967732   -2.7970899299
H       -4.4915979551   -1.2455001449   -0.9950489259
H       -0.5116839483   -4.1832614930   -1.4004687085
H       -2.4906971824   -0.8140039114    0.3979293880
H        1.2253132065   -3.7766115590   -0.0757280280
H        1.5393278490   -3.0220502217    1.4893612845
H        0.1489614522   -4.1147596891    1.2938785751
H        1.0919077589    1.1101629419   -2.1365750191
H        2.5180728263    0.1155509098   -1.7950084797
H        1.5804095000   -0.1646165399   -3.2848471295
H       -0.4743611633   -1.6762759091    1.3760423956
H       -0.0500193129   -1.3405104091   -2.0266698670
25   
Generated by ForceBalance from scan.xyz: Frame 20 of 24
C       -3.6018025568   -2.9891412439   -1.9962986474
C       -2.4232429003   -3.7212687467   -2.1756135547
C       -3.6456088184   -1.9866182696   -1.0223162314
C       -1.2996662528   -3.4520294423   -1.3885360794
C       -2.5181244687   -1.7202293296   -0.2395518926
C       -1.3282628826   -2.4455427842   -0.4084806588
C        0.8867376655   -1.1339732822   -0.2457562706
C        0.6674244913   -3.3303665646    0.9361995275
C        1.5289208742    0.1012555318   -2.2717508601
C       -0.1101521085   -2.1017835523    0.4283057089
N        0.6774030814   -0.8414713304   -1.5598218212
O        1.8365884884   -0.6759326308    0.3909760605
H       -4.4763376705   -3.2001917055   -2.6061223545
H       -2.3790006074   -4.5049742373   -2.9278108996
H       -4.5566574732   -1.4132794593   -0.8706658297
H       -0.3932007841   -4.0305703642   -1.5427372359
H       -2.5600027533   -0.9365900442    0.5140995725
H        1.1070666214   -3.9002054988    0.1120060219
H        1.4808132079   -3.0036139649    1.5870985460
H        0.0033632691   -3.9954872997    1.4962026117
H        1.2628927164    1.1410067166   -2.0460425819
H        2.5668067788   -0.0563249172   -1.9732682187
H        1.4302142345   -0.0685829373   -3.3466460494
H       -0.4545926399   -1.5493260769    1.3091295674
H       -0.1765582709   -1.1626269520   -1.9955271179
25   
Generated by ForceBalance from scan.xyz: Frame 21 of 24
C       -3.5832349741   -3.0322631156   -1.9912622846
C       -2.3757937842   -3.7054484922   -2.2112298021
C       -3.6557105110   -2.0622935440   -0.9874441762
C       -1.2534212313   -3.4098338949   -1.4338653971
C       -2.5278732055   -1.7692915253   -0.2130124648
C       -1.3115045720   -2.4361271219   -0.4215527648
C        0.9620887131   -1.2194054745   -0.3114171402
C        0.5955097285   -3.3167340814    1.0293524228
C        1.5228363442    0.1241443051   -2.2979258331
C       -0.0929948407   -2.0863793262    0.4113629854
N        0.6355246380   -0.7547162909   -1.5495368111
O        2.0360181332   -0.9546974598    0.2310431286
H       -4.4571506439   -3.2635113902   -2.5946287253
H       -2.3090463978   -4.4617779316   -2.9893267945
H       -4.5883854603   -1.5343625495   -0.8054348001
H       -0.3218771279   -3.9374148706   -1.6207588970
H       -2.5924966764   -1.0115178508    0.5650859458
H        1.0019676665   -3.9787194956    0.2588897241
H        1.4233023680   -2.9955244097    1.6640317164
H       -0.1202952568   -3.8882287152    1.6274863877
H        1.4095649595    1.1713625371   -1.9925848567
H        2.5573614403   -0.1728710820   -2.1171135189
H        1.2999698046    0.0370681662   -3.3642283257
H       -0.4275891556   -1.4512964875    1.2403636566
H       -0.2781139784   -0.9721036154   -1.9232524831
25   
Generated by ForceBalance from scan.xyz: Frame 22 of 24
C       -3.7232752853   -2.6628257550   -1.4761858620
C       -2.5215055869   -2.4726557816   -2.1693537030
C       -3.7146476258   -2.6847264701   -0.0789738357
C       -1.3248707734   -2.3071942307   -1.4690500107
C       -2.5122328871   -2.5167104442    0.6175356893
C       -1.3015208171   -2.3273303099   -0.0633725018
C        0.5924685959   -0.7124672649    0.5886681049
C        1.0609883701   -3.1816854280    0.3320504235
C        0.1446149299    1.6693951264    0.1284830326
C       -0.0036022772   -2.1345422862    0.6980754973
N       -0.2794239984    0.2823855110    0.2560197115
O        1.7743551724   -0.4918843146    0.8543922294
H       -4.6548133984   -2.7928596572   -2.0207795978
H       -2.5182892279   -2.4527337016   -3.2563152974
H       -4.6412236568   -2.8325282785    0.4699788157
H       -0.3998164226   -2.1536671346   -2.0194568987
H       -2.5143470868   -2.5326596062    1.7054361495
H        1.3352718796   -3.1181484845   -0.7250230952
H        1.9645178854   -3.0168255302    0.9215716305
H        0.6784739293   -4.1882679360    0.5252408756
H       -0.7170301306    2.3248365897    0.2786052504
H        0.8988358847    1.8823822912    0.8876221478
H        0.5826777419    1.8738031943   -0.8562526887
H       -0.2246825216   -2.2484347394    1.7668899719
H       -1.2045946199    0.0224546311   -0.0580880821
25   
Generated by ForceBalance from scan.xyz: Frame 23 of 24
C       -3.6887252449   -2.6962364614   -1.5059235139
C       -2.4851410038   -2.4644733717   -2.1838869778
C       -3.6939711141   -2.7413935108   -0.1095254994
C       -1.3003384240   -2.2807452551   -1.4692094835
C       -2.5027598303   -2.5558916089    0.6025794698
C       -1.2920535707   -2.3250898644   -0.0643122778
C        0.6137087235   -0.7190792257    0.4870627448
C        1.0373069215   -3.2136942494    0.4180859146
C        0.1394238517    1.6754797200    0.1544060432
C       -0.0005472907   -2.1194634299    0.7063329181
N       -0.2871615927    0.3050060285    0.4010711172
O        1.8294681314   -0.5319142897    0.4621190979
H       -4.6114033951   -2.8392391160   -2.0622492360
H       -2.4724231131   -2.4253149246   -3.2702497767
H       -4.6221575524   -2.9210747410    0.4270823469
H       -0.3727056371   -2.0928892405   -2.0051407452
H       -2.5145500474   -2.5922384222    1.6900542229
H        1.3289279523   -3.2139410258   -0.6357881788
H        1.9388508430   -3.0464719414    1.0104471881
H        0.6203242668   -4.1959254447    0.6597137950
H       -0.6512355328    2.3601944559    0.4712226251
H        1.0434376222    1.8765676520    0.7311952252
H        0.3633478616    1.8512169463   -0.9052544313
H       -0.2417731395   -2.1569863021    1.7763932553
H       -1.2589198354    0.0663688025    0.2517750928
25   
Generated by ForceBalance from scan.xyz: Frame 24 of 24
C       -3.6714219190   -2.7076498198   -1.5556685861
C       -2.4668232456   -2.4414251733   -2.2191427446
C       -3.6894615682   -2.7675713096   -0.1599851669
C       -1.2932243271   -2.2382999098   -1.4915835580
C       -2.5097855176   -2.5624672099    0.5660485928
C       -1.2993371470   -2.2974066576   -0.0877345144
C        0.6111950270   -0.7078831368    0.3617247434
C        0.9996942956   -3.2076487620    0.4816345530
C        0.1627119313    1.7046352401    0.1400464602
C       -0.0155750497   -2.0775761017    0.6950749949
N       -0.2328758537    0.3570046380    0.5269491384
O        1.7837380733   -0.5759881403    0.0157744647
H       -4.5851953009   -2.8655354981   -2.1226228442
H       -2.4448218599   -2.3905149486   -3.3048815538
H       -4.6185456177   -2.9745232214    0.3652014469
H       -0.3636231712   -2.0240338723   -2.0143321793
H       -2.5306140830   -2.6139435323    1.6529689696
H        1.3010952318   -3.2704811540   -0.5668341085
H        1.9005574574   -3.0311550084    1.0737753926
H        0.5573937337   -4.1648720630    0.7738630260
H       -0.4773765144    2.4284044768    0.6508101379
H        1.1992714591    1.8683146605    0.4377636841
H        0.0882779051    1.8601215347   -0.9437958792
H       -0.2757866262   -2.0433310630    1.7603282512
H       -1.2219975422    0.1545937899    0.6018093267
