26   
Generated by ForceBalance from scan.xyz: Frame 1 of 24
C        5.2240028896   -0.5519658170    2.8257480448
C        5.5020542345   -0.2004415318    4.1857365332
C        3.9104712310   -0.3518137186    2.4987444353
C        4.4237246389    0.2542584834    4.8973203053
C        4.3483859158    0.7225989301    6.3195263720
C        3.0395784849   -3.5252383232    1.1838088754
C        0.5688311907   -3.2370984463    1.5848729228
C        3.2269286751   -0.5781963377    1.1795752530
C        1.9572544866   -2.6402738293    1.8279090384
N        1.9319365740   -1.2381294078    1.3587278988
S        3.0103464299    0.2521284349    3.8675613846
Br       7.2528579083   -0.3769900446    4.9341242587
H        5.9684469659   -0.9365715865    2.1370102566
H        4.5579817122    1.7961794849    6.3938085403
H        3.3576174815    0.5440478209    6.7466678915
H        5.0856587918    0.1968600565    6.9315789038
H        2.9357827341   -3.5441674343    0.0914563327
H        4.0495284424   -3.1844755402    1.4286933587
H        2.9473946555   -4.5541309759    1.5478994845
H        0.3702031750   -3.3282396541    0.5090961405
H       -0.2085621709   -2.6048148322    2.0252988752
H        0.4904988286   -4.2366729363    2.0227591061
H        3.0284466858    0.3868874802    0.6974608000
H        3.9301440527   -1.1189853279    0.5271555174
H        2.1447568893   -2.6122396459    2.9078350235
H        1.4262891224   -1.1968033564    0.4753791834
26   
Generated by ForceBalance from scan.xyz: Frame 2 of 24
C        5.3670094283   -0.9099262387    2.9605288128
C        5.6457525505   -0.6670050761    4.3437892939
C        4.0504431725   -0.6941943703    2.6555553022
C        4.5664215456   -0.2785624400    5.0923069906
C        4.4923037767    0.0713468076    6.5482996646
C        2.9825798248   -3.6735548992    1.3911925585
C        0.5156046683   -3.2387552095    1.2121960676
C        3.3598504020   -0.8021955595    1.3238006928
C        1.8314164500   -2.7509793882    1.8247551012
N        1.9991507844   -1.3193345395    1.4692391227
S        3.1504238258   -0.2055101796    4.0687727261
Br       7.3988471374   -0.8952342319    5.0738361680
H        6.1116782514   -1.2352173520    2.2420157430
H        4.6953570986    1.1365731764    6.7099521307
H        3.5038951966   -0.1480035307    6.9617615777
H        5.2345983466   -0.4978892352    7.1136270421
H        3.1099762241   -3.6696493983    0.3016193486
H        3.9323805347   -3.3919008061    1.8535532363
H        2.7625788316   -4.7017306387    1.6977958496
H        0.5803370915   -3.2488924522    0.1167369489
H       -0.3172208201   -2.5893853803    1.5031851816
H        0.2841817706   -4.2555976605    1.5433755239
H        3.2717006742    0.1976208437    0.8808550112
H        4.0055794300   -1.3894336641    0.6527309658
H        1.7529219058   -2.8082687834    2.9174277801
H        1.4971679470   -1.1351618984    0.6040812688
26   
Generated by ForceBalance from scan.xyz: Frame 3 of 24
C        5.4606634066   -1.1474507060    3.2486426489
C        5.6845273232   -0.9957236901    4.6547735408
C        4.1566337455   -0.9098245732    2.9078039978
C        4.5756714220   -0.6574135525    5.3843106058
C        4.4440632658   -0.4040594749    6.8562164948
C        2.9160705205   -3.7393174448    1.6996074342
C        0.6162083916   -3.1308511349    0.8968345108
C        3.5068056966   -0.9308223430    1.5500561242
C        1.7495642142   -2.7534348488    1.8559897207
N        2.1018358191   -1.3237258672    1.6366389325
S        3.2009692994   -0.5147469571    4.3123611437
Br       7.4086019280   -1.2697730388    5.4378244660
H        6.2330470390   -1.4281126398    2.5407081396
H        4.6410611783    0.6474599766    7.0962480439
H        3.4399203750   -0.6473007790    7.2148570094
H        5.1629958354   -1.0117286379    7.4117026882
H        3.3049118650   -3.7461292546    0.6746220393
H        3.7392125408   -3.5147828547    2.3827509112
H        2.5651924080   -4.7514354511    1.9270577790
H        0.9675931435   -3.1136520199   -0.1422496675
H       -0.2261829606   -2.4354768745    0.9893325390
H        0.2415809794   -4.1368445895    1.1109288198
H        3.5212769254    0.0835300444    1.1326287916
H        4.1224847578   -1.5537699254    0.8832868070
H        1.3782927632   -2.8464320391    2.8849177170
H        1.6206926123   -0.9859254752    0.8091355253
26   
Generated by ForceBalance from scan.xyz: Frame 4 of 24
C        5.4618499643   -1.0548073499    3.1171053443
C        5.7499612869   -0.9009736010    4.5115120710
C        4.1323284131   -0.8761139609    2.8471499947
C        4.6659414615   -0.6192723423    5.2999562941
C        4.5986691739   -0.3814731422    6.7787912267
C        2.8314251350   -3.7037712657    1.9137668848
C        0.6968349583   -3.1572773718    0.6991883989
C        3.4093449036   -0.9165307275    1.5259011680
C        1.6390643624   -2.7422960593    1.8360646191
N        2.0136643685   -1.3115708884    1.6877531603
S        3.2317324804   -0.5360916976    4.3011659545
Br       7.5235296313   -1.0985119249    5.2030218312
H        6.2088514102   -1.2957115913    2.3684530038
H        4.7557418089    0.6770417858    7.0176595814
H        3.6276357397   -0.6764138908    7.1865642701
H        5.3744609284   -0.9560735317    7.2913164659
H        3.3903480367   -3.7371423104    0.9722437150
H        3.5228265938   -3.4382791537    2.7170040181
H        2.4605660081   -4.7142548295    2.1126422326
H        1.2155797311   -3.1192314558   -0.2664629031
H       -0.1758062416   -2.4951270342    0.6471050364
H        0.3274981942   -4.1775081483    0.8483180923
H        3.4011227790    0.0929281432    1.0971609730
H        3.9918995537   -1.5416169682    0.8316786984
H        1.0895886301   -2.8352663832    2.7828185606
H        1.4502180406   -0.8789502915    0.9647066787
26   
Generated by ForceBalance from scan.xyz: Frame 5 of 24
C        4.5757962125    0.5484258240    3.5906936128
C        4.5744192357    0.6412091050    5.0188499680
C        3.4264434433   -0.0206489575    3.1115266598
C        3.4539303572    0.1446075267    5.6304209434
C        3.1163922571    0.0847259209    7.0902674972
C        2.3501491206   -1.1075583962   -0.9764416814
C        0.1783400628   -1.5853172674    0.2682102932
C        3.0157429664   -0.2369373190    1.6835938767
C        1.6953668372   -1.8101783915    0.2218083337
N        2.2794480148   -1.4950181390    1.5528115806
S        2.3524248516   -0.4610665437    4.4154476174
Br       6.0418681632    1.3965824591    5.9837075521
H        5.3910331381    0.8930503238    2.9637442616
H        2.7010118129    1.0375560262    7.4386632986
H        2.3816403910   -0.6979397846    7.2977066698
H        4.0129917657   -0.1214691566    7.6811799741
H        2.1955133246   -0.0239222824   -0.9509331540
H        3.4277284015   -1.2986309180   -1.0189933914
H        1.9094609768   -1.4783654680   -1.9075725558
H       -0.0526586679   -0.5269882498    0.4401161087
H       -0.2607604018   -2.1601327197    1.0876716070
H       -0.2974812216   -1.8862045790   -0.6723779584
H        2.3512464961    0.5791981703    1.3739851354
H        3.9178921817   -0.1641636649    1.0552489799
H        1.8504149733   -2.8872088735    0.0824452633
H        2.9023719060   -2.2490322332    1.8316975912
26   
Generated by ForceBalance from scan.xyz: Frame 6 of 24
C        4.4567805692    0.6799988004    3.5447977741
C        4.4964577050    0.7455116909    4.9739009539
C        3.3532768542    0.0085278408    3.0912568629
C        3.4524721200    0.1295445828    5.6118293361
C        3.1721850234    0.0090388670    7.0801295136
C        2.4107544236   -1.3009626359   -0.9956204212
C        0.1961975851   -1.4136534975    0.2619970567
C        2.9151335491   -0.2253448713    1.6744699973
C        1.6676677128   -1.8454987284    0.2347721966
N        2.2985034669   -1.5469427008    1.5416763524
S        2.3753084759   -0.5604272091    4.4203533422
Br       5.9171218452    1.6218329305    5.9056754610
H        5.2116881946    1.1152281606    2.8989426009
H        2.6820272282    0.9115703069    7.4635478999
H        2.5210510821   -0.8430660371    7.2932116816
H        4.1037377894   -0.1237413844    7.6370643450
H        2.3864132765   -0.2067957251   -1.0354480391
H        3.4596585977   -1.6187662228   -1.0023127745
H        1.9424875484   -1.6724446994   -1.9133002406
H        0.1040205822   -0.3265002828    0.3716631002
H       -0.3167820319   -1.8818025884    1.1059659174
H       -0.3133786194   -1.6969547492   -0.6655759278
H        2.1642562309    0.5254895412    1.3985115421
H        3.7829923859   -0.0588239080    1.0166226784
H        1.6764703287   -2.9398368385    0.1632078919
H        3.0123640389   -2.2462338394    1.7363147493
26   
Generated by ForceBalance from scan.xyz: Frame 7 of 24
C        4.0053142806    0.8975367181    3.3585603267
C        4.0394770111    0.9831046919    4.7866210119
C        2.9988221296    0.0810906019    2.9171593021
C        3.0873961622    0.2419381739    5.4349524954
C        2.8336085405    0.1015261159    6.9063748383
C        2.4015461141   -1.6627938868   -1.1389033174
C        0.1293514702   -1.4525415510   -0.0201580453
C        2.5912685042   -0.2241471373    1.5047026549
C        1.5535891639   -2.0084581347    0.0975880918
N        2.1558345430   -1.6176107066    1.3884973542
S        2.1077785085   -0.5977183916    4.2557538788
Br       5.3346909115    2.0462013032    5.7064742090
H        4.6943891439    1.4214111476    2.7049426084
H        2.2824495438    0.9657142529    7.2950147993
H        2.2499608488   -0.7963192447    7.1263690422
H        3.7783983040    0.0387698513    7.4537489812
H        2.4646729190   -0.5803864743   -1.2952902130
H        3.4219837248   -2.0512974100   -1.0404659388
H        1.9613843109   -2.0998420601   -2.0418297403
H        0.1244765330   -0.3614757974   -0.1199910012
H       -0.4550761965   -1.7178483400    0.8651545677
H       -0.3681799461   -1.8614832976   -0.9057550962
H        1.7486694341    0.4176686903    1.2235320602
H        3.4291747534    0.0484803233    0.8425337379
H        1.4700007989   -3.1008115135    0.1505477344
H        2.9539494599   -2.2204316716    1.5812186328
26   
Generated by ForceBalance from scan.xyz: Frame 8 of 24
C        3.8951750100    0.9750936454    3.3916316561
C        4.0385019866    1.0058072901    4.8152707024
C        2.8959931799    0.1282502847    2.9932581774
C        3.1766928177    0.1926083469    5.5020911552
C        3.0471937706   -0.0179247914    6.9812262159
C        2.5551012830   -1.8316810861   -1.0393072264
C        0.2385397463   -1.2795857160   -0.1726708837
C        2.3993286667   -0.1426330456    1.6028801070
C        1.5639857245   -1.9871352703    0.1290188719
N        2.1058190772   -1.5672160537    1.4360117602
S        2.1457700304   -0.6461909837    4.3667675933
Br       5.3475647771    2.0987651055    5.6781508038
H        4.5051937982    1.5579352364    2.7100437689
H        2.4829089987    0.7981737137    7.4472319865
H        2.5318560191   -0.9552606259    7.2069658215
H        4.0343121166   -0.0477584095    7.4511605172
H        2.7956962999   -0.7789262974   -1.2240806845
H        3.4918225737   -2.3628044785   -0.8339667433
H        2.1342891226   -2.2410955836   -1.9645631724
H        0.3862011376   -0.2251475835   -0.4289065682
H       -0.4340800407   -1.3364076734    0.6887038044
H       -0.2534570978   -1.7544331295   -1.0273646540
H        1.4726712059    0.4162330648    1.4354500600
H        3.1445348266    0.2601492553    0.8961274668
H        1.3467565128   -3.0561521286    0.2449345064
H        2.9506839404   -2.1004169103    1.6346892434
26   
Generated by ForceBalance from scan.xyz: Frame 9 of 24
C        2.7169275308    1.5809705705    3.1755330046
C        2.8082277351    1.7533192119    4.5931641932
C        1.9620779826    0.4897128368    2.8378686693
C        2.1486039479    0.8104262568    5.3357229230
C        2.0399703128    0.6865872128    6.8264996078
C        2.4813191711   -2.0714951330   -0.8791642377
C        0.0487752178   -1.5122788608   -0.4957673625
C        1.5797648460    0.0050275360    1.4693921183
C        1.3158944815   -2.1044641142    0.1273014915
N        1.6512267549   -1.4545455549    1.4104253325
S        1.3812662246   -0.3359580516    4.2630274484
Br       3.7883559440    3.1917158881    5.3816303401
H        3.1868000296    2.2411599315    2.4545851279
H        1.3749716271    1.4553100304    7.2361815249
H        1.6461886512   -0.2905686777    7.1177094152
H        3.0201649705    0.8143780660    7.2957215152
H        2.7482034156   -1.0409101459   -1.1402419288
H        3.3718357636   -2.5571933631   -0.4636276651
H        2.2192085636   -2.5939487381   -1.8063173997
H        0.2154695130   -0.4987500475   -0.8746563641
H       -0.7718250807   -1.4826464094    0.2284074779
H       -0.2680188899   -2.1294430573   -1.3421460740
H        0.5490450245    0.3064120254    1.2581820040
H        2.2195335841    0.5301421818    0.7379704159
H        1.1092184721   -3.1540331992    0.3713159866
H        2.5748533279   -1.7568440334    1.7130643841
26   
Generated by ForceBalance from scan.xyz: Frame 10 of 24
C        2.3435259148    1.9414970402    3.1501302331
C        2.4004829075    2.1630202322    4.5626873234
C        1.7958236346    0.7251367518    2.8415505400
C        1.9198488060    1.1356455397    5.3301279716
C        1.8374732512    1.0300224138    6.8240844546
C        2.7898485130   -2.1709478434   -0.6356163920
C        0.3683015827   -1.4843218314   -0.5818985764
C        1.4988362675    0.1489135564    1.4866046004
C        1.5283386261   -2.0545184046    0.2390447240
N        1.7904528267   -1.2814563461    1.4721169142
S        1.3720044470   -0.1562229831    4.2884186838
Br       3.1053692886    3.7730837582    5.3132653920
H        2.6883225241    2.6572152035    2.4117435983
H        1.0741772125    1.7075578476    7.2229450142
H        1.5849670792    0.0141063983    7.1384004475
H        2.7926403768    1.3028186342    7.2833454304
H        3.1272605737   -1.1812236500   -0.9658772236
H        3.6097243047   -2.6412369738   -0.0802078871
H        2.6011132391   -2.7799458122   -1.5270326013
H        0.6057753125   -0.4972826344   -0.9914351286
H       -0.5475748174   -1.4025466543    0.0122474630
H        0.1596929713   -2.1501517800   -1.4248520523
H        0.4358538420    0.2880176900    1.2669183723
H        2.0555373031    0.7464935735    0.7419620933
H        1.2449747621   -3.0659326637    0.5583128030
H        2.7463738655   -1.4369799001    1.7816578732
26   
Generated by ForceBalance from scan.xyz: Frame 11 of 24
C        2.9967738283    1.5721295363    3.3869505140
C        3.2471002726    1.5899052743    4.7959114550
C        2.3348548999    0.4388191700    2.9967490628
C        2.8005124403    0.4893468685    5.4777949140
C        2.8946870124    0.1792176975    6.9421578929
C        2.5598931342   -2.4309791928   -0.7475556582
C        0.4475325614   -1.0734486681   -0.5908553417
C        1.8268717192    0.0744367621    1.6302012826
C        1.4181902800   -1.9783291723    0.1755327735
N        1.9597825345   -1.3634654247    1.4123893095
S        2.0387981328   -0.6150503989    4.3571630995
Br       4.1469761647    3.0450665954    5.6493013702
H        3.2929709966    2.3665180258    2.7104720318
H        2.1605076840    0.7577630539    7.5145370937
H        2.7140931160   -0.8811315908    7.1372124187
H        3.8870959695    0.4338211356    7.3255624889
H        3.1328653731   -1.5684071412   -1.1089647317
H        3.2483998678   -3.1018804087   -0.2203815350
H        2.1731929086   -2.9731410005   -1.6176407003
H        0.9374720711   -0.1637280782   -0.9529351787
H       -0.4141518487   -0.7839818428    0.0183082118
H        0.0642194655   -1.6142359914   -1.4618963579
H        0.7674629636    0.3403280641    1.5646844921
H        2.3572550364    0.7086626463    0.8978902454
H        0.8594288514   -2.8741824567    0.4788224376
H        2.9321274228   -1.6322918705    1.5345587313
26   
Generated by ForceBalance from scan.xyz: Frame 12 of 24
C        2.8295354333    1.6676848634    3.4410267677
C        3.1729088582    1.6797176551    4.8303027053
C        2.2201835775    0.4983608854    3.0714185199
C        2.8454266927    0.5413238876    5.5178385684
C        3.0550456301    0.2155884773    6.9667557385
C        2.5920840348   -2.5397273471   -0.5728053364
C        0.6387461724   -0.9471316363   -0.7153617096
C        1.6585408012    0.1204651649    1.7304141876
C        1.4294238822   -1.8987667383    0.1923754826
N        1.9351505993   -1.2881395500    1.4503695916
S        2.0873237431   -0.5943205461    4.4269366957
Br       4.0385855754    3.1742309487    5.6500289569
H        3.0261816389    2.4909303537    2.7628134052
H        2.3292178313    0.7427966478    7.5964809036
H        2.9477291748   -0.8560389753    7.1538980416
H        4.0548714632    0.5212507223    7.2886789578
H        3.2867864150   -1.7736892084   -0.9391542031
H        3.1493213067   -3.2305437637    0.0703073664
H        2.2281296729   -3.1093502501   -1.4343410743
H        1.2598386349   -0.1248542966   -1.0872884353
H       -0.2308624781   -0.5203187252   -0.2080506313
H        0.2688189897   -1.5028733588   -1.5832085764
H        0.5727375647    0.2659171206    1.7463460825
H        2.0617571226    0.8296602003    0.9883100897
H        0.7400332220   -2.7050842268    0.4805330657
H        2.9390069461   -1.4341073527    1.5174774216
26   
Generated by ForceBalance from scan.xyz: Frame 13 of 24
C        2.6965163114    1.7091830719    3.4750434770
C        3.1246877787    1.7172353996    4.8404883465
C        2.1618556830    0.5022280739    3.1101715910
C        2.9322833184    0.5401698796    5.5140030089
C        3.2569461769    0.2010641720    6.9383686893
C        2.5353462113   -2.6854779014   -0.4572003818
C        0.8398325169   -0.8375234372   -0.8164294048
C        1.5591765480    0.1091819683    1.7922350525
C        1.4323641643   -1.8415142796    0.1838818530
N        1.9467519054   -1.2614580753    1.4514122026
S        2.2023854764   -0.6287207024    4.4396012983
Br       3.9224026113    3.2560281607    5.6470152356
H        2.7835260227    2.5611238094    2.8094216272
H        2.5313648582    0.6529833250    7.6243969165
H        3.2482251653   -0.8795812768    7.1026710409
H        4.2468666739    0.5807932209    7.2077654238
H        3.3570286292   -2.0494779354   -0.8106294820
H        2.9407166799   -3.4048652404    0.2624108520
H        2.1500354034   -3.2459279127   -1.3146686800
H        1.5941973761   -0.1304054532   -1.1817326124
H        0.0137435416   -0.2654289971   -0.3855310567
H        0.4455181963   -1.3793876039   -1.6827070766
H        0.4654515318    0.1471873440    1.8703064668
H        1.8500551223    0.8682187459    1.0488435675
H        0.6145608467   -2.5227126767    0.4602542993
H        2.9643495713   -1.2944340364    1.4359354581
26   
Generated by ForceBalance from scan.xyz: Frame 14 of 24
C        2.7880699015    1.7499567418    3.6595324390
C        3.2936215456    1.6985054072    4.9972860158
C        2.3333532702    0.5299070790    3.2348226148
C        3.2384794237    0.4651752856    5.5905900605
C        3.6745520433    0.0559769569    6.9660023704
C        2.3937205705   -2.7543265121   -0.3221197662
C        1.0407197004   -0.6517419763   -0.7704656039
C        1.6814391632    0.1770276191    1.9285793269
C        1.4650599156   -1.6966921452    0.2747072585
N        2.0966926102   -1.1578150291    1.4984062794
S        2.5434111334   -0.6834132462    4.4721819165
Br       4.0081327884    3.2388887526    5.8757084373
H        2.7661715254    2.6507091045    3.0556378956
H        2.9610987206    0.4018382333    7.7227554318
H        3.7563210925   -1.0306826838    7.0515361488
H        4.6482233191    0.4929757845    7.2064102491
H        3.3097049227   -2.2929186122   -0.7133020099
H        2.6761483892   -3.4909520194    0.4366331398
H        1.9058435176   -3.2805458889   -1.1480375474
H        1.9024247008   -0.0881452140   -1.1501617221
H        0.3178445029    0.0621988454   -0.3661704176
H        0.5670770854   -1.1515719417   -1.6223430783
H        0.5908391541    0.1647909302    2.0580155925
H        1.9036022995    0.9808676702    1.2088804191
H        0.5456456920   -2.2052975004    0.6002087621
H        3.1077523525   -1.1415864405    1.3688502293
26   
Generated by ForceBalance from scan.xyz: Frame 15 of 24
C        2.6180341287    1.7978539333    3.6771583194
C        3.1487578866    1.7410125710    5.0048774038
C        2.2873663760    0.5560106978    3.2035750146
C        3.2353477753    0.4835723409    5.5412067178
C        3.7383736576    0.0630091795    6.8900801185
C        2.2763950392   -2.8749190763   -0.2409574343
C        1.1742200241   -0.6835317395   -0.8914723603
C        1.6515156644    0.1904970259    1.8926835047
C        1.4689233628   -1.6718928895    0.2498465972
N        2.1622496976   -1.0942908228    1.4156067268
S        2.6466587256   -0.6819125002    4.3801440924
Br       3.7083437519    3.3080560178    5.9465995071
H        2.4899658492    2.7170643866    3.1156726029
H        3.0051662792    0.2929725594    7.6716510944
H        3.9407566234   -1.0106765546    6.9230791994
H        4.6623056928    0.5937083518    7.1381025050
H        3.2474278120   -2.5553359995   -0.6408710350
H        2.4578945903   -3.5759661936    0.5790098362
H        1.7460302961   -3.4016487491   -1.0401030028
H        2.1016284399   -0.2438385808   -1.2802494575
H        0.5209139752    0.1323875545   -0.5687850253
H        0.6738260407   -1.1968513845   -1.7199460294
H        0.5667946107    0.0817893484    2.0272062831
H        1.7991026164    1.0303683632    1.1952032786
H        0.5034533303   -2.0415125304    0.6232049530
H        3.1533366700   -0.9901458788    1.1985662355
26   
Generated by ForceBalance from scan.xyz: Frame 16 of 24
C        3.4870935676    0.2263428303   -0.5952739273
C        4.8701778115    0.3551722780   -0.2419199067
C        2.9290195822   -0.9260778796   -0.1147996743
C        5.3767216996   -0.6725393891    0.5079974473
C        6.7561140555   -0.8833182772    1.0534983459
C       -0.0172172182   -0.6977746390    3.1809507399
C        0.1389993353    0.8647691998    1.2006370109
C        1.4976868791   -1.3993901294   -0.2298203011
C        0.7580906674   -0.3425465752    1.9104174008
N        0.7571577389   -1.5242250263    1.0288887579
S        4.1113135561   -1.8502122985    0.7847853822
Br       5.9000888653    1.8684609409   -0.7942865753
H        2.9441978179    0.9632675078   -1.1772337453
H        6.7409389948   -1.0092601224    2.1412990933
H        7.2258605625   -1.7729302522    0.6199028938
H        7.3839133020   -0.0210587098    0.8200522511
H       -1.0587749127   -0.9353472667    2.9405980967
H        0.4229151415   -1.5681700487    3.6825388324
H       -0.0018120238    0.1364555392    3.8896667643
H       -0.8578065482    0.6150730530    0.8202428342
H        0.7538594052    1.2090899732    0.3645645083
H        0.0442167548    1.7015891279    1.8999571061
H        0.9702361180   -0.7064358695   -0.8914962050
H        1.4651268353   -2.3784703932   -0.7205344942
H        1.7867697812   -0.0658772289    2.2002917823
H        1.1143346929   -2.3224643633    1.5504970186
26   
Generated by ForceBalance from scan.xyz: Frame 17 of 24
C        4.5430422465    0.8101583398    0.9684439490
C        5.7455063362    0.8256932091    1.7479113722
C        3.9533014521   -0.4237839496    0.9403453012
C        6.0809886366   -0.3712861198    2.3227978877
C        7.2413281046   -0.7305582125    3.1999196133
C        0.3891921307   -0.8419686616    3.3078208886
C        0.4972418613    1.0146750107    1.6039470231
C        2.6539261620   -0.8279206315    0.2843380418
C        1.2406823852   -0.1706738438    2.2275641467
N        1.5531296689   -1.1746865624    1.1926824381
S        4.8798737312   -1.5671753018    1.8855968034
Br       6.7788316982    2.4213462346    1.9509387274
H        4.1421575742    1.6815013256    0.4618994788
H        6.9127183212   -0.9744417681    4.2163660176
H        7.7867921460   -1.5951554563    2.8079171400
H        7.9352071013    0.1102081695    3.2618707510
H       -0.5290501298   -1.2515943959    2.8729380758
H        0.9357824619   -1.6610849149    3.7908374931
H        0.1130861621   -0.1229936414    4.0853608904
H       -0.4396509251    0.6772258336    1.1486580709
H        1.0937405634    1.5065089106    0.8287478939
H        0.2688939529    1.7668973169    2.3664525666
H        2.3392015174   -0.0021978890   -0.3612219988
H        2.8141088972   -1.6893855390   -0.3730375475
H        2.1601168285    0.2086241851    2.7030416724
H        1.7822927480   -2.0531458517    1.6547419454
26   
Generated by ForceBalance from scan.xyz: Frame 18 of 24
C        4.8402409192    0.8694918347    1.8897524780
C        5.8281674720    0.7107623730    2.9160572910
C        4.1815872722   -0.2968781820    1.6121819856
C        5.9306453286   -0.5531029020    3.4330825932
C        6.8135376659   -1.0823948604    4.5218615560
C        0.4460593062   -1.1151581770    3.1883696532
C        0.2510284240    0.7984866902    1.5565376164
C        3.0731133680   -0.5403985052    0.6132607964
C        1.1989145768   -0.2166344803    2.2050166450
N        1.8136635089   -1.0593196104    1.1568879745
S        4.7766198630   -1.5922422205    2.6260024284
Br       6.9015762666    2.1796115716    3.5047091238
H        4.6360994031    1.8103486225    1.3900259032
H        6.2479700421   -1.2545594752    5.4447951717
H        7.2811136476   -2.0290562224    4.2338470411
H        7.6055161775   -0.3634786953    4.7419141387
H       -0.3034711030   -1.7172622447    2.6614759091
H        1.1325372651   -1.7941738353    3.7079421912
H       -0.0706179192   -0.5172097521    3.9454032208
H       -0.5613672179    0.2783530870    1.0390242014
H        0.7750461123    1.4180530962    0.8207075362
H       -0.1791849574    1.4682383855    2.3096660376
H        2.8745968922    0.4096613797    0.1058879579
H        3.4109278784   -1.2396026789   -0.1600775189
H        1.9732022515    0.3278998925    2.7678551867
H        1.9866975456   -1.9873761569    1.5385400844
26   
Generated by ForceBalance from scan.xyz: Frame 19 of 24
C        5.3850236612   -0.8465693899    1.1368716269
C        5.8785885255   -0.1774983962    2.3023642735
C        4.0489102473   -0.6249781193    0.9392392948
C        4.9420742965    0.5428851714    2.9955709455
C        5.1043562821    1.3735481357    4.2331715573
C        1.3555285264   -4.2689010433    0.2929931021
C        2.3064569337   -3.2552575943    2.4004464578
C        3.1732674497   -1.1480586986   -0.1648988453
C        2.3414524194   -3.2458491236    0.8672451291
N        2.0209844792   -1.8967654385    0.3432298750
S        3.3956160520    0.3970042702    2.1948841543
Br       7.7104524529   -0.2945615510    2.8347560978
H        5.9982348102   -1.4629622897    0.4885926960
H        5.4459777818    2.3857729405    3.9871507934
H        4.1625629939    1.4603023550    4.7817455243
H        5.8477773640    0.9246144988    4.8971951497
H        0.3255621843   -3.9926812434    0.5497102953
H        1.4340596209   -4.3298979055   -0.7990280436
H        1.5441935998   -5.2668518912    0.7005865798
H        1.3080781456   -2.9775401812    2.7542920573
H        3.0212259386   -2.5393430905    2.8133437602
H        2.5538662898   -4.2500266279    2.7890531283
H        2.7861966626   -0.3084132564   -0.7545566647
H        3.8162592885   -1.7444317635   -0.8362458346
H        3.3548096101   -3.5289810546    0.5415598953
H        1.3445555333   -1.9822372450   -0.4108998020
26   
Generated by ForceBalance from scan.xyz: Frame 20 of 24
C        5.4255133377   -0.7361793635    1.0313240728
C        5.9449261701   -0.0627935716    2.1830798136
C        4.0637048932   -0.6313025411    0.9406561768
C        5.0029809711    0.5444164139    2.9703498088
C        5.1855796069    1.3398770107    4.2280287453
C        1.5746173508   -4.3026476025    0.1977950382
C        1.9246408583   -3.2522657439    2.4796908988
C        3.1555232929   -1.1647587892   -0.1322002470
C        2.2919995905   -3.2047317161    0.9917462899
N        1.9987469324   -1.8668490889    0.4235197951
S        3.4181570924    0.2813533777    2.2816787498
Br       7.8139715552   -0.0352702080    2.5835231733
H        6.0405808185   -1.2691047147    0.3143483098
H        5.4170624763    2.3873728278    4.0021029753
H        4.2844167140    1.3206302029    4.8468759521
H        6.0143005710    0.9365343113    4.8160194402
H        0.4877141246   -4.1559680197    0.2350625983
H        1.8855979147   -4.2996921119   -0.8533305998
H        1.7877218236   -5.2937404117    0.6113567434
H        0.8506872813   -3.0793104858    2.6121476008
H        2.4600546114   -2.4754254782    3.0306530522
H        2.1754094300   -4.2265943740    2.9153274025
H        2.7760437403   -0.3315926907   -0.7364289180
H        3.7706235032   -1.7915098313   -0.8023763793
H        3.3736437657   -3.3765172338    0.9079305799
H        1.2803083496   -1.9426712416   -0.2908388119
26   
Generated by ForceBalance from scan.xyz: Frame 21 of 24
C        5.2574976029   -0.3481959048    2.9257963492
C        5.2995972740    0.1165541130    4.2793318046
C        3.9908664520   -0.3148113555    2.4084682573
C        4.0892852670    0.4904535364    4.8000294417
C        3.7625436742    1.0255734904    6.1619417054
C        2.3097348412   -3.7506726043    0.3165762614
C        1.1541199078   -3.0401473131    2.4721644778
C        3.5354484442   -0.6642645955    1.0187277763
C        2.2981686619   -2.7633263470    1.4909427511
N        2.2496683410   -1.3584510546    1.0300148201
S        2.8464764370    0.2687854822    3.5899488597
Br       6.9333527634    0.1882793721    5.2702203039
H        6.1287713829   -0.6876579125    2.3762265451
H        3.8642327290    2.1167417721    6.1932251521
H        2.7385913758    0.7757105046    6.4535305781
H        4.4432426076    0.6069998810    6.9077597739
H        1.3774080163   -3.6775390675   -0.2579080478
H        3.1456633760   -3.5462202283   -0.3621080104
H        2.4023412184   -4.7848088294    0.6652800703
H        0.1829737747   -2.9039550236    1.9815200620
H        1.2055433654   -2.3471703198    3.3153875270
H        1.2016627676   -4.0665852830    2.8539736210
H        3.4070156041    0.2562459135    0.4360586123
H        4.3480824222   -1.2351700912    0.5344552601
H        3.2384555736   -2.8790888535    2.0434974469
H        1.8138405609   -1.3002502208    0.1137933013
26   
Generated by ForceBalance from scan.xyz: Frame 22 of 24
C        5.3420221137   -0.3435262458    2.8323622757
C        5.4487019479    0.1094443342    4.1865416971
C        4.0487686448   -0.3263431014    2.3856884680
C        4.2624814330    0.4578324626    4.7758532125
C        4.0013664614    0.9763042065    6.1582295076
C        2.5524317068   -3.7368553747    0.4625436460
C        0.9702040869   -3.0642631102    2.3405285452
C        3.5166973800   -0.6744912267    1.0227849234
C        2.2642971745   -2.7352367587    1.5917930233
N        2.2184677687   -1.3383528592    1.1191754559
S        2.9594245580    0.2267495346    3.6323299312
Br       7.1321250645    0.1978184543    5.0892576187
H        6.1875295724   -0.6656338092    2.2342056250
H        4.0815445982    2.0691892389    6.1925942937
H        3.0008539047    0.7024762973    6.5046079857
H        4.7314787365    0.5674097155    6.8614367518
H        1.7310481311   -3.7433123237   -0.2653217329
H        3.4757373498   -3.4820245917   -0.0694355685
H        2.6602569975   -4.7555268889    0.8507821204
H        0.1036688647   -2.9833977631    1.6726698695
H        0.8262433203   -2.3638027286    3.1673229716
H        0.9933018904   -4.0846473005    2.7389618049
H        3.3740071092    0.2441900443    0.4409076252
H        4.2907182807   -1.2629438826    0.4988521522
H        3.0875989481   -2.7842003159    2.3136813533
H        1.7273734519   -1.2831181101    0.2299789007
26   
Generated by ForceBalance from scan.xyz: Frame 23 of 24
C        5.3192693972   -0.4152300151    2.8740699378
C        5.4789132820    0.0041127107    4.2340414290
C        4.0195522482   -0.3230287388    2.4565804110
C        4.3256912182    0.4026083287    4.8560745036
C        4.1220857636    0.9098387445    6.2521501593
C        2.7889232523   -3.6747983646    0.6589153780
C        0.7906410855   -3.1229096434    2.1190124865
C        3.4409219695   -0.6295300839    1.1032341575
C        2.1971306536   -2.6986695273    1.6899387989
N        2.1465623301   -1.3005094064    1.2258724566
S        2.9878254823    0.2601430587    3.7385835874
Br       7.1827682559   -0.0170476170    5.1015343187
H        6.1334724114   -0.7691586690    2.2510079790
H        4.2495268361    1.9977193606    6.3001623991
H        3.1200714502    0.6730381914    6.6207432868
H        4.8520893563    0.4595864091    6.9296453969
H        2.1563903482   -3.7206537213   -0.2367257381
H        3.7959137293   -3.3780762792    0.3484058663
H        2.8570037678   -4.6870852578    1.0720695799
H        0.0990831068   -3.0963563300    1.2671921949
H        0.4081032868   -2.4457880154    2.8875591463
H        0.7911408826   -4.1440437092    2.5146534485
H        3.2712164613    0.3059026449    0.5564901586
H        4.1987844081   -1.1940720516    0.5344963772
H        2.8404483066   -2.7017263553    2.5772731802
H        1.6471594952   -1.2505112870    0.3398455499
26   
Generated by ForceBalance from scan.xyz: Frame 24 of 24
C        5.1000185865   -0.8997147366    3.2405467277
C        5.2550534137   -0.6360767284    4.6396217428
C        3.8483644094   -0.5783075125    2.7909160430
C        4.1438300170   -0.1298554161    5.2598092861
C        3.9518660013    0.2766713360    6.6900182236
C        2.7633776878   -3.6492051953    0.9701201065
C        0.4112777403   -3.1283742902    1.7397614378
C        3.2964182090   -0.6876429104    1.3978664224
C        1.8800268292   -2.7018161884    1.7989340946
N        1.9578165943   -1.2824152890    1.4028211120
S        2.8534941231    0.0306230761    4.0906602118
Br       6.8960985914   -0.9867053287    5.5558150670
H        5.8829226809   -1.3106573173    2.6123753586
H        4.2372111357    1.3238690466    6.8448173660
H        2.9095518906    0.1634986217    7.0009059381
H        4.5741479055   -0.3377103631    7.3456873600
H        2.4902797941   -3.6104111606   -0.0921998105
H        3.8256935354   -3.4029598487    1.0591861308
H        2.6408552943   -4.6833380602    1.3102119990
H        0.0368304917   -3.0995164428    0.7081518900
H       -0.2057744029   -2.4588793305    2.3458524944
H        0.2858794392   -4.1513434625    2.1083824000
H        3.2000469545    0.3138951173    0.9610827318
H        4.0366163755   -1.2287111420    0.7867997156
H        2.2119232674   -2.7515944400    2.8423333939
H        1.5440000903   -1.1713174883    0.4782922181
