24   

C       -4.2534866454   -1.0923284853    5.2354966855
C       -4.4072106982   -0.5769577568    3.9335684817
C       -2.0772037898   -1.5831364175    4.7813877374
C       -2.2078640625   -1.0693933553    3.4642388888
C       -1.1513787710   -0.5771747403    1.2116694518
C       -0.0365808365   -0.5511808993    0.4173173485
C       -1.0318912658   -1.0975458541    2.5615122465
C       -0.9538950818    0.9615105774   -1.2966363715
C        1.3946553076    0.0113500226   -1.4857980007
N       -3.0894707793   -1.6007625105    5.6753550533
N       -3.4001027142   -0.5586915033    3.0426387004
N        0.1311845658    0.1350126058   -0.7389896955
O        0.0352575449   -1.5613237412    2.9578161191
H       -5.1062368901   -1.0767190412    5.9038373700
H       -5.3716286576   -0.1805679646    3.6384553512
H       -1.1226702666   -1.9852389292    5.1009307522
H       -2.0825222738   -0.1364654037    0.8856938383
H        0.8383900468   -1.0822087774    0.7849705227
H       -1.3010483664    1.6871232241   -0.5541553525
H       -1.7912521527    0.3274422023   -1.6055173477
H       -0.6035286650    1.5170439905   -2.1722555954
H        1.2649108396   -0.6738836858   -2.3298098079
H        2.1931995018   -0.3740860945   -0.8437880379
H        1.7117628174    0.9887514707   -1.8626118278
24   

C       -4.2321306857   -1.0184014766    5.2397912131
C       -4.4227833561   -0.6467573365    3.8945268964
C       -2.0484021434   -1.4872749338    4.7980481918
C       -2.2158691919   -1.1168179132    3.4377707430
C       -1.2022955628   -0.8069492570    1.1327491529
C       -0.0831200804   -0.7225167118    0.3445910135
C       -1.0511098473   -1.1927808280    2.5234116666
C       -0.9490055251    0.9947631409   -1.1926187485
C        1.3969194302    0.0508675767   -1.4444756505
N       -3.0456724520   -1.4429193314    5.7078433511
N       -3.4306696144   -0.6903547988    2.9878307266
N        0.1175053245    0.0964684538   -0.7163210281
O        0.0386582631   -1.5742498666    2.9448381334
H       -5.0741994064   -0.9582424993    5.9190582204
H       -5.4038796822   -0.3125550541    3.5781487042
H       -1.0758801945   -1.8224403841    5.1397949242
H       -2.1488443609   -0.4115996227    0.7929373856
H        0.7925924119   -1.2637229538    0.6955715298
H       -1.3280940935    1.6081127391   -0.3689515790
H       -1.7709778530    0.4115788400   -1.6201914861
H       -0.5674759117    1.6691423975   -1.9657358799
H        1.2836687271   -0.5341240876   -2.3630243094
H        2.1796441042   -0.4090691897   -0.8327743774
H        1.7255014811    1.0625944118   -1.7018603224
24   

C       -4.1910169684   -0.9196955816    5.2363422371
C       -4.4144875761   -0.6940156565    3.8640377783
C       -1.9946490327   -1.3391590663    4.8070351802
C       -2.1950694488   -1.1149881119    3.4196197726
C       -1.2221540780   -0.9951239950    1.0789230888
C       -0.1104440819   -0.8616522626    0.2803462004
C       -1.0389014641   -1.2300990674    2.4984524936
C       -0.9410769251    1.0288671501   -1.0562648800
C        1.3948267327    0.0869948177   -1.4009066505
N       -2.9815013539   -1.2450869985    5.7244561559
N       -3.4328840141   -0.7875218054    2.9497747712
N        0.1101841978    0.0671360986   -0.6809429263
O        0.0735508787   -1.5155440380    2.9360017532
H       -5.0262731534   -0.8260889709    5.9202237377
H       -5.4128724380   -0.4341720383    3.5322718336
H       -1.0041239257   -1.5966845834    5.1640360323
H       -2.1866164077   -0.6548085306    0.7295936253
H        0.7678853077   -1.4147011035    0.6056384139
H       -1.3372747574    1.5289733116   -0.1667140988
H       -1.7552454518    0.5141548810   -1.5765415403
H       -0.5383960408    1.7985801449   -1.7221758202
H        1.2829671196   -0.3940976881   -2.3780584165
H        2.1680900888   -0.4446668814   -0.8372174179
H        1.7354048479    1.1169995148   -1.5453450549
24   

C       -4.1565174008   -0.8107502376    5.2137467050
C       -4.4050936325   -0.7370208852    3.8292908031
C       -1.9466885214   -1.1666163707    4.7953983289
C       -2.1723505668   -1.0950275988    3.3957702811
C       -1.2278250986   -1.1769450052    1.0417766891
C       -0.1363085179   -1.0005074660    0.2132370898
C       -1.0210837146   -1.2459163426    2.4735240764
C       -0.9492254222    1.0298549099   -0.9038772462
C        1.3673009558    0.0944772213   -1.3771479743
N       -2.9274536860   -1.0268309781    5.7136069567
N       -3.4297173832   -0.8768528160    2.9143485763
N        0.0891567358    0.0159717419   -0.6496483034
O        0.1106332518   -1.4231202394    2.9183076149
H       -4.9881930220   -0.6875022798    5.8972955877
H       -5.4182352147   -0.5593629151    3.4881604750
H       -0.9410064415   -1.3390961500    5.1611107863
H       -2.2125005217   -0.9076098207    0.6865582145
H        0.7473756476   -1.5660500544    0.5001518503
H       -1.3437895809    1.4193150573    0.0400974601
H       -1.7671955817    0.5945086724   -1.4867936806
H       -0.5342391059    1.8725377783   -1.4657690269
H        1.2361291930   -0.2660315985   -2.4026235030
H        2.1343432915   -0.5154587450   -0.8893483545
H        1.7283598280    1.1272869465   -1.4035311246
24   

C       -4.1297902413   -0.7227604127    5.1689835755
C       -4.3949976282   -0.8061029417    3.7882351830
C       -1.9052629745   -0.9787910533    4.7545426213
C       -2.1476230967   -1.0648387105    3.3586285766
C       -1.2183900738   -1.3388691455    1.0146078211
C       -0.1552188538   -1.1293624677    0.1424300428
C       -0.9971777362   -1.2357045441    2.4386459039
C       -0.9374289097    1.0226745076   -0.7295733400
C        1.3308246243    0.0748106842   -1.3800927045
N       -2.8848433869   -0.8085793436    5.6689699906
N       -3.4208425630   -0.9767204093    2.8773252321
N        0.0728800027   -0.0445770503   -0.6234618472
O        0.1485306571   -1.2881103046    2.8791933604
H       -4.9616155023   -0.5834427433    5.8492572312
H       -5.4203952577   -0.7279341398    3.4463766070
H       -0.8873096231   -1.0498053767    5.1200530572
H       -2.2231962073   -1.1606150966    0.6580859695
H        0.7282630699   -1.7216792699    0.3685997970
H       -1.2950408558    1.3128656954    0.2636174519
H       -1.7840469240    0.6826130850   -1.3344459015
H       -0.5084664160    1.9118260913   -1.2022941225
H        1.1547136149   -0.1552770190   -2.4359305206
H        2.0876414907   -0.6163620956   -0.9956335949
H        1.7313552514    1.0898334652   -1.2960140356
24   

C       -4.1395054115   -0.9098351762    5.3196752153
C       -4.4542214984   -1.3095134109    4.0062840320
C       -2.1238815075   -0.1347669663    4.5978000430
C       -2.4161993324   -0.5334039313    3.2668630370
C       -1.6524061687   -0.7380593230    0.8556710597
C       -0.5977991070   -0.9828354996   -0.0419927085
C       -1.3905066287   -0.3283084912    2.2149040421
C       -0.2485671851    1.3597664955   -0.6109751203
C        0.9706257969   -0.4926868844   -1.8446787401
N       -2.9749586692   -0.3150306135    5.6310850919
N       -3.6098840963   -1.1256945959    2.9760117005
N       -0.0331895475   -0.0787168568   -0.8505829540
O       -0.2998973657    0.1556792833    2.5055158096
H       -4.8638023317   -1.0914803344    6.1048558700
H       -5.4090270178   -1.7866514521    3.8190605633
H       -1.1700911661    0.3330506599    4.8130353444
H       -2.5796716461   -1.2676208764    0.6869932842
H       -0.4874057827   -2.0190436918   -0.3480382779
H       -1.3169205815    1.5780482806   -0.5153261083
H        0.1383325581    1.9494736420   -1.4478195592
H        0.2669438049    1.6728722396    0.3027225254
H        0.7436457770   -0.0477636270   -2.8185399637
H        0.9815266830   -1.5806863388   -1.9642062264
H        1.9677122419   -0.1719619894   -1.5257719115
24   

C       -4.0863893176   -0.8308549646    5.3035148858
C       -4.4016692400   -1.3390948340    4.0283423639
C       -2.1120461890   -0.0356856472    4.4952340339
C       -2.4053769215   -0.5424653266    3.2014549168
C       -1.6704110245   -0.8971669345    0.8017764989
C       -0.6427459250   -1.0746836508   -0.1276012808
C       -1.4059907922   -0.3667819504    2.1185802547
C       -0.2830106265    1.3211274125   -0.5257094317
C        0.9838824288   -0.4431901949   -1.8308166608
N       -2.9418907528   -0.1714177731    5.5522652004
N       -3.5779938901   -1.2012798658    2.9743719098
N       -0.0356841461   -0.1021281923   -0.8251401556
O       -0.3404360690    0.1935397793    2.3611015950
H       -4.7935275212   -0.9797073048    6.1109188868
H       -5.3401778458   -1.8633345247    3.8915550870
H       -1.1754153889    0.4839892470    4.6612742664
H       -2.5508084800   -1.5165086060    0.7008858963
H       -0.5773040420   -2.0691776536   -0.5591452629
H       -1.3431272057    1.4969594449   -0.3178395170
H       -0.0086677544    1.9437450899   -1.3828492187
H        0.3118801529    1.6376835347    0.3367069322
H        0.8045657572    0.1125044639   -2.7565107531
H        0.9610465555   -1.5112871362   -2.0690284056
H        1.9804196068   -0.1962235815   -1.4504123672
24   

C       -4.0703857620   -0.7897547946    5.2711226194
C       -4.3644161649   -1.3798529296    4.0265455617
C       -2.1193422720    0.0206857871    4.4225996228
C       -2.3916741573   -0.5674420043    3.1587218095
C       -1.6434146842   -1.0349694144    0.7869596276
C       -0.6717114441   -1.1362251631   -0.2011565663
C       -1.3992329374   -0.4120430837    2.0656800810
C       -0.3063985256    1.2885270185   -0.4852148304
C        0.9922380370   -0.4174767921   -1.8290492648
N       -2.9481044718   -0.0816111999    5.4842480865
N       -3.5414213129   -1.2765573059    2.9681211171
N       -0.0237050764   -0.1245103156   -0.8044243313
O       -0.3601640836    0.2054860299    2.2814049942
H       -4.7760205292   -0.9137955104    6.0840153020
H       -5.2859400237   -1.9395718177    3.9177756880
H       -1.2012051904    0.5799613797    4.5609070394
H       -2.4818573622   -1.7153178264    0.7310846650
H       -0.6436283775   -2.0894045811   -0.7209868058
H       -1.3510377927    1.4228879613   -0.1879886830
H       -0.1335799387    1.9183315083   -1.3632358973
H        0.3462112829    1.6343162993    0.3224533778
H        0.8390810675    0.2146043916   -2.7093539878
H        0.9374259351   -1.4618583607   -2.1521109993
H        1.9928735008   -0.2333101290   -1.4246661738
24   

C       -4.0643886990   -0.7849827860    5.2646533950
C       -4.3173485312   -1.4485454563    4.0484275032
C       -2.1369538286    0.0621134685    4.3981845019
C       -2.3688228752   -0.5980747182    3.1619399963
C       -1.5839466990   -1.1410987087    0.8205544347
C       -0.6917623998   -1.1569314940   -0.2359213362
C       -1.3770794820   -0.4434855110    2.0676102065
C       -0.3212536000    1.2827330815   -0.4374753071
C        0.9796611762   -0.3796690987   -1.8267963595
N       -2.9744204202   -0.0219834229    5.4546132122
N       -3.4852384744   -1.3644743015    2.9954760975
N       -0.0133507653   -0.1221979762   -0.7701481082
O       -0.3744174291    0.2367585995    2.2640299871
H       -4.7759439055   -0.8959907296    6.0742609246
H       -5.2144288479   -2.0495995794    3.9573227339
H       -1.2457255121    0.6672772485    4.5180322607
H       -2.3751073156   -1.8778105072    0.8005268099
H       -0.6996478011   -2.0718371368   -0.8211709502
H       -1.3525599652    1.3873928551   -0.0868133858
H       -0.2127969120    1.9162985665   -1.3229861550
H        0.3619473248    1.6491580097    0.3351108130
H        0.8488979674    0.3238400946   -2.6550316419
H        0.8747764776   -1.3921305604   -2.2293337488
H        1.9908764640   -0.2710592222   -1.4215110372
24   

C       -4.0803565340   -0.7796117938    5.2844749723
C       -4.2724933265   -1.5101071242    4.0958526440
C       -2.1776774557    0.1225981724    4.4189111066
C       -2.3492543256   -0.6030279729    3.2096374469
C       -1.4985354885   -1.1997773682    0.9056888591
C       -0.6867210470   -1.1501980025   -0.2079793935
C       -1.3497780076   -0.4371435998    2.1234417667
C       -0.2497336802    1.2842115546   -0.3635485459
C        0.9918295720   -0.3811867896   -1.7937830120
N       -3.0333029243    0.0441859416    5.4611553343
N       -3.4217360262   -1.4327342769    3.0574220361
N        0.0381600647   -0.1236503713   -0.7009454782
O       -0.3944273576    0.3105051614    2.3072299673
H       -4.8046912178   -0.8878444327    6.0830491935
H       -5.1373488153   -2.1579219089    4.0141220309
H       -1.3216697477    0.7784880489    4.5280464039
H       -2.2439860139   -1.9829697810    0.9121912461
H       -0.7388808327   -2.0377588163   -0.8318715801
H       -1.2720296915    1.3979763994    0.0099301151
H       -0.1559316864    1.9163245323   -1.2517514815
H        0.4548538569    1.6456565551    0.3920690854
H        0.8280626441    0.3193391670   -2.6187518804
H        0.8769300030   -1.3953308038   -2.1893559284
H        2.0171510673   -0.2688969984   -1.4269522640
24   

C       -4.1095593553   -0.8449940581    5.2761573900
C       -4.2333893397   -1.6261375530    4.1109553993
C       -2.2482656682    0.1418642321    4.4130660930
C       -2.3522305656   -0.6326165887    3.2263932995
C       -1.4375818495   -1.2360624583    0.9483084519
C       -0.7074214669   -1.1301505869   -0.2149245612
C       -1.3507522965   -0.4327926589    2.1469945195
C       -0.1226653492    1.2774684298   -0.3200819580
C        0.9586016738   -0.4134263042   -1.8363405387
N       -3.1175706127    0.0462553021    5.4424781550
N       -3.3686626346   -1.5321336611    3.0855172651
N        0.0783114649   -0.1372382502   -0.6875251050
O       -0.4527366230    0.3838371504    2.3215891133
H       -4.8424193112   -0.9690856448    6.0645822944
H       -5.0560875919   -2.3275282564    4.0365485316
H       -1.4375536976    0.8542369702    4.5135600115
H       -2.1425702285   -2.0555797688    0.9707089514
H       -0.8187712369   -1.9918035278   -0.8668600268
H       -1.1366344863    1.4446562321    0.0561364112
H        0.0088300597    1.9215901890   -1.1948326204
H        0.6049216597    1.5799129989    0.4396798832
H        0.7075098992    0.2418023881   -2.6765665831
H        0.8568982318   -1.4493625002   -2.1750778013
H        2.0031770073   -0.2498422529   -1.5527741296
24   

C       -4.1611185703   -1.0384144877    5.2441377156
C       -4.0862940854   -1.9025122718    4.1350927219
C       -2.6517523979    0.3524666256    4.2581057813
C       -2.5567550338   -0.5028450235    3.1272620400
C       -1.5270759145   -0.9974824839    0.8717003549
C       -0.7970772749   -0.9363281863   -0.3019619378
C       -1.6409912070   -0.1278209898    2.0157443199
C        0.3771967422    1.2555290739   -0.2985084212
C        0.6943085864   -0.4091398047   -2.1546134580
N       -3.4475947210    0.0978973109    5.3195776086
N       -3.2958657480   -1.6493280746    3.0774292633
N        0.0823792326   -0.0751386148   -0.8552301653
O       -0.9877373437    0.9032112549    2.1186672910
H       -4.8183909032   -1.3025645811    6.0640835633
H       -4.6863942292   -2.8048836704    4.1331146280
H       -2.0612704124    1.2608116953    4.2886895905
H       -2.1367271436   -1.8886463507    0.9241414831
H       -0.9811506152   -1.8191684639   -0.9074421918
H        0.9058823745    1.8693979647   -1.0338672740
H        1.0159552476    1.1666206691    0.5855124788
H       -0.5468034423    1.7858885497   -0.0541113593
H        0.5012347164    0.3888108992   -2.8789072288
H        0.2836802130   -1.3370237067   -2.5651102940
H        1.7754270320   -0.5353699058   -2.0388371601
24   

C       -4.0071927180   -0.9154339266    5.3367597475
C       -3.7829018949   -1.9202720615    4.3759253915
C       -2.9579244481    0.5962799169    3.9962462971
C       -2.7171073879   -0.3997292040    3.0119642159
C       -1.7574556139   -1.0296602556    0.7596176500
C       -1.0039566311   -0.9402337189   -0.3901528568
C       -1.9841780122   -0.0257730684    1.7746067114
C        0.7453562887    0.7198093186    0.1865139923
C        0.3726948916   -0.0397985967   -2.1824409116
N       -3.5994556633    0.3528046413    5.1597221992
N       -3.1444243518   -1.6793232689    3.2173016600
N       -0.0712110578   -0.0422867246   -0.7774563231
O       -1.6252787023    1.1381875874    1.6326192103
H       -4.5268941242   -1.1778128039    6.2506332072
H       -4.1359956688   -2.9247623366    4.5775241797
H       -2.6128017808    1.6090759862    3.8231479533
H       -2.2746427658   -1.9698635437    0.8924401468
H       -1.1832054517   -1.7591588140   -1.0808740444
H        1.7824671923    0.7822723298   -0.1568038086
H        0.7567565072    0.2293246098    1.1647416707
H        0.3579632744    1.7381554711    0.2913454425
H        0.1518614337    0.9293777398   -2.6409557582
H       -0.1388167751   -0.8145625522   -2.7623878213
H        1.4491272783   -0.2292626302   -2.2436665536
24   

C       -3.9778116651   -0.9011337689    5.3083367951
C       -3.6835410616   -1.9396015101    4.4036890074
C       -2.9951648326    0.5969880127    3.9036002070
C       -2.6862148763   -0.4327321785    2.9748610218
C       -1.6850483990   -1.1161754510    0.7567956178
C       -1.0075441760   -0.9746170104   -0.4359365312
C       -1.9688567400   -0.0803336883    1.7229003558
C        0.8101659924    0.5708106460    0.2341430582
C        0.3965139461   -0.0232579219   -2.1818587652
N       -3.6384140036    0.3773708500    5.0708562254
N       -3.0431081653   -1.7224342066    3.2414327609
N       -0.0246743276   -0.1127598080   -0.7730684033
O       -1.6759865913    1.0935563597    1.5188081338
H       -4.4963422709   -1.1452197775    6.2279260549
H       -3.9832803591   -2.9507510646    4.6527835845
H       -2.7067202414    1.6177226160    3.6805382190
H       -2.1602907837   -2.0737159161    0.9192769827
H       -1.2272215476   -1.7516353674   -1.1623713984
H        1.8552123401    0.5949295185   -0.0892239161
H        0.7786912559    0.0449517950    1.1933122836
H        0.4693642697    1.6014929764    0.3740892339
H        0.0951333218    0.9427326231   -2.5995836063
H       -0.0600620596   -0.8157931153   -2.7831831258
H        1.4831670306   -0.1256466963   -2.2644920111
24   

C       -3.9594288176   -0.8557568707    5.3282666804
C       -3.5979429297   -1.9146437428    4.4729259871
C       -3.0232054621    0.6301635645    3.8795388153
C       -2.6487686279   -0.4201075468    2.9993906591
C       -1.5889240426   -1.1393006235    0.8193245903
C       -1.0172925371   -0.9482983975   -0.4253713325
C       -1.9398225760   -0.0829904797    1.7389328737
C        0.8515543027    0.5268159658    0.2534598647
C        0.3847303380    0.0027480963   -2.1741569622
N       -3.6764699923    0.4270171995    5.0441973096
N       -2.9462520873   -1.7139434544    3.3139528690
N        0.0032157822   -0.1335389960   -0.7582619303
O       -1.7102471335    1.0949884844    1.4814316888
H       -4.4846787965   -1.0870919406    6.2473395482
H       -3.8547387992   -2.9281218719    4.7579436249
H       -2.7818827307    1.6539091719    3.6176519054
H       -2.0061881589   -2.1166688043    1.0186321448
H       -1.2946433876   -1.6895438351   -1.1691877644
H        1.8915569850    0.5605691901   -0.0850008040
H        0.8350790985   -0.0220302972    1.2000371669
H        0.5106343800    1.5526639162    0.4247171573
H        0.0570693467    0.9751395332   -2.5558590331
H       -0.0745034902   -0.7813852852   -2.7843670922
H        1.4702788432   -0.0787635954   -2.2879249144
24   

C       -3.9707278369   -0.8505267337    5.3386805542
C       -3.5332878088   -1.9131927541    4.5244188854
C       -3.0766864493    0.6402189897    3.8683746357
C       -2.6277317390   -0.4138405409    3.0288400957
C       -1.4873712244   -1.1348547852    0.8876276936
C       -1.0306995169   -0.9030799689   -0.4034627538
C       -1.9192635627   -0.0760583985    1.7687748210
C        0.8846509171    0.5201999651    0.2307987824
C        0.3629804878   -0.0056151516   -2.1889489620
N       -3.7467235468    0.4366505176    5.0233768104
N       -2.8637925974   -1.7119296056    3.3757202146
N        0.0270637522   -0.1544699043   -0.7631780163
O       -1.7523496843    1.1034336485    1.4713021440
H       -4.5075134002   -1.0825595560    6.2508884459
H       -3.7455181161   -2.9301146785    4.8328872920
H       -2.8838186718    1.6671277246    3.5800129049
H       -1.8350301361   -2.1317756955    1.1205754991
H       -1.3837079957   -1.6089843413   -1.1495503546
H        1.9095862954    0.6009970369   -0.1439061579
H        0.9231408154   -0.0467802027    1.1660585256
H        0.5104557844    1.5282605894    0.4347327479
H        0.0770959449    0.9924193806   -2.5366782697
H       -0.1629534059   -0.7477327222   -2.7978412965
H        1.4373626078   -0.1452851716   -2.3442426571
24   

C       -4.0151152349   -0.8742195252    5.3464162463
C       -3.4929305460   -1.9224814326    4.5639854546
C       -3.1631431377    0.6425981255    3.8776543921
C       -2.6304661802   -0.3968502130    3.0698894900
C       -1.3889933995   -1.0804451659    0.9687662336
C       -1.0378564453   -0.8233023927   -0.3585044527
C       -1.9153736038   -0.0392283091    1.8196601056
C        0.9334995824    0.5336413144    0.1897306405
C        0.3413140492   -0.0337103918   -2.2078881811
N       -3.8547497666    0.4187648588    5.0160764814
N       -2.8010507254   -1.7007334308    3.4324578869
N        0.0577879911   -0.1661547357   -0.7693851303
O       -1.8121160143    1.1408131040    1.4955970979
H       -4.5664179060   -1.1227082737    6.2455389544
H       -3.6571464766   -2.9451118176    4.8827376895
H       -3.0214617300    1.6739946896    3.5759117890
H       -1.6554855764   -2.0952207197    1.2296670933
H       -1.4867321593   -1.4868786031   -1.0917908924
H        1.9241453112    0.6945027321   -0.2465621913
H        1.0676186783   -0.0599185951    1.0994970529
H        0.5087203285    1.5074373639    0.4526839278
H        0.1338205839    0.9899348179   -2.5363455273
H       -0.2790585328   -0.7167947456   -2.7966422709
H        1.3902339751   -0.2708765139   -2.4113048051
24   

C       -4.0763915730   -0.9511300539    5.3573642537
C       -3.4490090737   -1.9579445499    4.5980892041
C       -3.3017108025    0.6225646381    3.9054892238
C       -2.6649020274   -0.3748668126    3.1210419450
C       -1.3085930983   -0.9621513571    1.0583168571
C       -1.0323479562   -0.7064833314   -0.2967186934
C       -1.9521130029    0.0311661123    1.8850022836
C        1.0141662025    0.5436756885    0.1305665153
C        0.3155679206   -0.0752019160   -2.2292659237
N       -4.0076667590    0.3493348059    5.0241847655
N       -2.7415354600   -1.6864664806    3.4872639502
N        0.0921035585   -0.1630569018   -0.7768243905
O       -1.9406121061    1.2099652717    1.5408652017
H       -4.6349657963   -1.2391246651    6.2400665483
H       -3.5431209645   -2.9893093086    4.9171457161
H       -3.2329925311    1.6603097806    3.6001074309
H       -1.4570457803   -1.9930954529    1.3478428570
H       -1.6013712466   -1.3056364707   -1.0015630866
H        1.9520419442    0.7776167096   -0.3826732962
H        1.2551487447   -0.0805800144    0.9968260224
H        0.5631922748    1.4800231588    0.4748139165
H        0.2029871277    0.9613756590   -2.5633039246
H       -0.4036635725   -0.6925720156   -2.7767225701
H        1.3216819784   -0.4265649772   -2.4785803942
24   

C       -3.8459200062   -0.9261332604    5.3569008686
C       -2.9460116962   -1.7533649089    4.6571811655
C       -4.0507549489    0.4018240973    3.5183212841
C       -3.1456957464   -0.4164593515    2.7930509383
C       -1.8982447211   -0.8740691575    0.6325614903
C       -1.3021433039   -0.3520241987   -0.5107160412
C       -2.8067528553   -0.0504125972    1.3965498142
C        0.9574737313   -0.1695884848    0.4190361459
C        0.4000384696    0.7270151797   -1.8943879036
N       -4.4092010611    0.1589666989    4.7978758310
N       -2.5894974111   -1.5132238589    3.3831763575
N       -0.0270937566    0.0595036147   -0.6529545642
O       -3.2926193928    0.9538369171    0.8818678820
H       -4.0896157367   -1.1760832599    6.3826952021
H       -2.5234941168   -2.6133767329    5.1634164611
H       -4.4829293597    1.2701859203    3.0345407457
H       -1.3955311362   -1.6726457916    1.1598881541
H       -2.0036498933    0.0842472735   -1.2178853820
H        1.2272471350   -1.2295302192    0.4639735842
H        0.5510778544    0.1422456797    1.3865728264
H        1.8664518777    0.4121396256    0.2362352770
H        1.0314303414    1.5909685750   -1.6648353352
H       -0.4628794798    1.0854249218   -2.4646650409
H        0.9632617053    0.0269033069   -2.5199847433
24   

C       -3.9506866087   -0.9757584558    5.3483396625
C       -2.9333190257   -1.7094531495    4.7076209943
C       -4.2201538233    0.2848908385    3.4712459765
C       -3.1971491594   -0.4395181678    2.8051947296
C       -1.7983620649   -0.7910668878    0.7179543541
C       -1.2554028616   -0.2463725925   -0.4298881545
C       -2.8383411926   -0.0645586309    1.4161157633
C        1.0814750034   -0.2560596190    0.3249874466
C        0.4147099050    0.7616253998   -1.9076750194
N       -4.6063513300    0.0277597242    4.7398495664
N       -2.5487430418   -1.4549814866    3.4445793976
N        0.0357580774    0.0866061450   -0.6547459977
O       -3.4150062937    0.8647913158    0.8559288850
H       -4.2107125199   -1.2317891484    6.3686090292
H       -2.4407687054   -2.5066936914    5.2518619823
H       -4.7243234734    1.0898686993    2.9490395203
H       -1.2344976822   -1.5260530428    1.2748669659
H       -1.9758923845    0.2299003331   -1.0910411347
H        1.2637882038   -1.3354754921    0.3204829766
H        0.7821043627    0.0570206697    1.3303735508
H        2.0186337812    0.2541742306    0.0811790234
H        1.1364088988    1.5597070525   -1.7077421114
H       -0.4583261753    1.2133464464   -2.3894247214
H        0.8601642886    0.0403655969   -2.6005852782
24   

C       -4.0268246260   -1.0458075773    5.3525695094
C       -2.9123819228   -1.6761806862    4.7654184696
C       -4.3376434888    0.1690519249    3.4521069497
C       -3.2172468957   -0.4515694849    2.8398303146
C       -1.6902465153   -0.6684362830    0.8245126522
C       -1.2055934150   -0.1196954082   -0.3397044608
C       -2.8377482657   -0.0525357718    1.4631490945
C        1.1808649586   -0.3082656178    0.2266667964
C        0.4148153503    0.7711612590   -1.9436187560
N       -4.7525957690   -0.1178923194    4.7050462033
N       -2.4984276098   -1.3914574138    3.5181206922
N        0.0877957243    0.1209706189   -0.6632451466
O       -3.4875789557    0.8033048571    0.8667182256
H       -4.3057529319   -1.3207587874    6.3628713162
H       -2.3673865571   -2.4164253108    5.3393320155
H       -4.8968300914    0.9154625664    2.8997554846
H       -1.0792690064   -1.3488992843    1.4004517538
H       -1.9440435325    0.3754479410   -0.9663354256
H        1.2618044480   -1.4000226088    0.2256411491
H        1.0021683672    0.0417933191    1.2483823567
H        2.1358687892    0.1086509600   -0.1082956451
H        1.2184163344    1.5013569805   -1.8064894301
H       -0.4537049575    1.3018866007   -2.3465482533
H        0.7336108735    0.0198638280   -2.6734878752
24   

C       -4.1019888504   -1.1252864298    5.3346205970
C       -2.9029176096   -1.6437035076    4.8076956870
C       -4.4357138970    0.0490710647    3.4128308631
C       -3.2305410848   -0.4593689298    2.8608584951
C       -1.5919901629   -0.5338276721    0.9257402065
C       -1.1515387412   -0.0024913018   -0.2593363654
C       -2.8262820690   -0.0314188366    1.4999832321
C        1.2482087928   -0.3905031034    0.1313055153
C        0.4143558158    0.7300140452   -1.9916629315
N       -4.8823010422   -0.2746896676    4.6457170608
N       -2.4571686707   -1.3219934799    3.5804767314
N        0.1306334915    0.1237472106   -0.6797407314
O       -3.5314387206    0.7501996614    0.8654955032
H       -4.4028667645   -1.4247318358    6.3315707600
H       -2.3173482444   -2.3258091553    5.4128224657
H       -5.0379491622    0.7350119040    2.8282644960
H       -0.9497875380   -1.1672387207    1.5208061679
H       -1.8987065182    0.5062575015   -0.8642133300
H        1.2195933513   -1.4844518436    0.1631630237
H        1.1939829014    0.0046753653    1.1507290492
H        2.2076468386   -0.0840550730   -0.2972198088
H        1.2818828193    1.3939465592   -1.9253852475
H       -0.4357828638    1.3250591556   -2.3403249320
H        0.6174794275   -0.0531356372   -2.7293550456
24   

C       -4.2876172550   -1.1537654022    5.2364045974
C       -4.3654766746   -0.4344051513    4.0278026767
C       -2.1669711227   -1.7966563425    4.7140638004
C       -2.2217158277   -1.0788082583    3.4903044659
C       -1.0817599591   -0.3640804278    1.3403986046
C       -0.0069655727   -0.4473399251    0.4962869455
C       -1.0405879459   -1.0945406155    2.5940329725
C       -1.1367627003    0.4857724927   -1.4835231191
C        1.3048950368   -0.2126311601   -1.5555535008
N       -3.1902213669   -1.8425765115    5.5944142644
N       -3.3474446090   -0.3880121699    3.1504089931
N        0.0416192895   -0.0866183743   -0.8087986407
O       -0.0342096276   -1.7227778951    2.9156953940
H       -5.1450286365   -1.1496499704    5.8989251929
H       -5.2785081068    0.1012056992    3.7958259187
H       -1.2648784349   -2.3407831725    4.9691809465
H       -1.9844444742    0.1534171611    1.0490733665
H        0.8897720877   -0.9187721255    0.8916978657
H       -1.3798933628    1.4633608053   -1.0547751971
H       -1.9979425798   -0.1819396514   -1.3794255104
H       -0.9413884257    0.6193370353   -2.5522011217
H        1.1161540955   -0.6026741964   -2.5605950530
H        1.9899831284   -0.9028359638   -1.0528740727
H        1.7914919741    0.7649007481   -1.6354555595
24   

C       -4.2752462193   -1.1565190136    5.2388799811
C       -4.3921389636   -0.5144207524    3.9905677359
C       -2.1137227185   -1.6876025431    4.7603119663
C       -2.2076025330   -1.0471801604    3.4965790112
C       -1.1081744482   -0.3966032440    1.3068941756
C       -0.0100437265   -0.4225271490    0.4893267757
C       -1.0238906758   -1.0417877648    2.6034543446
C       -1.0194910840    0.8580534662   -1.3553272225
C        1.3436783317   -0.0572063457   -1.5146176369
N       -3.1373216775   -1.7495688573    5.6392706189
N       -3.3736492096   -0.4517234674    3.1147271031
N        0.1003436170    0.1199367658   -0.7447931056
O        0.0175958815   -1.5871749128    2.9624760583
H       -5.1355491790   -1.1711831407    5.8974907977
H       -5.3368506166   -0.0544991231    3.7254092685
H       -1.1799705629   -2.1565854193    5.0485622459
H       -2.0258357252    0.0857367058    1.0025755655
H        0.8708504244   -0.9388041011    0.8636103269
H       -1.3293208472    1.6845845559   -0.7078707452
H       -1.8686145300    0.1874029252   -1.5221931680
H       -0.7216707598    1.2788317863   -2.3209404076
H        1.1848546656   -0.7785466523   -2.3227115963
H        2.1525897686   -0.4258511054   -0.8756833533
H        1.6643214925    0.8978128591   -1.9425545857
