16   

C        5.0204802026    1.6399392157    0.1068042600
C        5.3184796246    0.5084490522    0.8035317605
C        3.3530568224    0.2730439071   -0.2439690917
C        2.0817715281   -0.3296392602   -0.7324156873
C        0.4487546377   -2.1486741459   -0.3787294448
N        3.8079575174    1.4804326344   -0.5366910435
N        4.2733651220   -0.3805653531    0.5937869024
N        1.6820491508   -1.4600941398   -0.0278889350
O        1.4034565665    0.0985371729   -1.6592728398
H        5.6397597578    2.5284849985    0.0582596669
H        6.2151540432    0.3521391443    1.3922959687
H        0.2817703000   -2.9941805869    0.2954951246
H        0.5056178372   -2.5290264741   -1.4041418509
H       -0.4040318656   -1.4658310611   -0.2990782524
H        4.2233707985   -1.3469342023    0.8997212662
H        2.1565590983   -1.6880070683    0.8344770654
16   

C        4.9865665296    1.6552698839    0.1824021193
C        5.3494777392    0.4760879791    0.7607782218
C        3.3945584653    0.2445907742   -0.3003654320
C        2.1386443816   -0.3764598304   -0.8111455777
C        0.4188058365   -2.0836201290   -0.3439878356
N        3.7759467857    1.4996846652   -0.4669464992
N        4.3499956805   -0.4410964427    0.4664271634
N        1.6634747682   -1.4061600230   -0.0130035088
O        1.5216542430   -0.0169214997   -1.8072386342
H        5.5587408515    2.5753078002    0.2216132008
H        6.2585650123    0.3082386159    1.3269257127
H        0.1948862513   -2.8508153148    0.4034451333
H        0.4992340805   -2.5672982989   -1.3232262566
H       -0.4094882448   -1.3672546716   -0.3675781019
H        4.3452711987   -1.4361221247    0.6706212270
H        2.0845439079   -1.5380099579    0.8974294020
16   

C        4.9507309607    1.6576381980    0.2648505850
C        5.3912025419    0.4531427278    0.7271263227
C        3.4457440049    0.2042939721   -0.3405223938
C        2.2076256887   -0.4436321883   -0.8725694117
C        0.4003429245   -2.0297388988   -0.3289965749
N        3.7409106592    1.4916661625   -0.3845594771
N        4.4442370349   -0.4915331667    0.3556070724
N        1.6507981480   -1.3610274534   -0.0028496023
O        1.6661314930   -0.1702834336   -1.9374556222
H        5.4675993808    2.6028441589    0.3866636590
H        6.3157791335    0.2881620550    1.2685127723
H        0.1255245095   -2.7275630210    0.4678369125
H        0.5036686983   -2.5939414255   -1.2619105589
H       -0.4043900239   -1.2956335558   -0.4437727416
H        4.4884940883   -1.4995439850    0.4774192666
H        2.0263486583   -1.4119201013    0.9361940456
16   

C        4.8551382869    1.6506082590    0.3408766505
C        5.3959311116    0.4461588919    0.6824090676
C        3.4357236997    0.1489168161   -0.3386515308
C        2.2185095525   -0.5440366870   -0.8785176946
C        0.3444155763   -2.0229393125   -0.2757731964
N        3.6334666034    1.4534098987   -0.2780170278
N        4.5021652298   -0.5300460488    0.2632926520
N        1.5827692643   -1.3330718633    0.0515649966
O        1.7782907371   -0.4122025192   -2.0145536923
H        5.3104027807    2.6169352340    0.5262555725
H        6.3504878675    0.3028914869    1.1758214901
H        0.0245966519   -2.6449632370    0.5658129337
H        0.4883378595   -2.6701046315   -1.1474409199
H       -0.4465854007   -1.2982514496   -0.4964001011
H        4.6108275984   -1.5399131471    0.3064292154
H        1.9034112415   -1.2807939433    1.0113622984
16   

C        4.7889984362    1.6499053302    0.4703314927
C        5.4398514709    0.4658071069    0.6577238321
C        3.4417168515    0.1098057568   -0.2591196885
C        2.2624759378   -0.6234205979   -0.8437305193
C        0.3221459751   -2.0332072220   -0.2966700552
N        3.5462324206    1.4151692403   -0.0926296821
N        4.5941221169   -0.5354469216    0.1997427187
N        1.5021653305   -1.2756062150    0.0902469727
O        2.0424279030   -0.7360832808   -2.0440966236
H        5.1842117023    2.6278995672    0.7208464415
H        6.4345444712    0.3530347426    1.0736072381
H       -0.0937257414   -2.5533358635    0.5716675100
H        0.5793366035   -2.7804100128   -1.0547960584
H       -0.4422445582   -1.3617370544   -0.7020106962
H        4.7774016498   -1.5331655222    0.1297292134
H        1.6959811361   -1.0833214925    1.0666327335
16   

C        4.7724289560    1.6640931600    0.5614006699
C        5.5253313304    0.5269861941    0.5945009539
C        3.4829265686    0.0754595236   -0.1677803410
C        2.3526936735   -0.6885071675   -0.8087449715
C        0.3256097424   -2.0120443886   -0.3511328418
N        3.5081998981    1.3739116539    0.0754409548
N        4.7212249838   -0.5015438272    0.1225790843
N        1.4330520626   -1.1717456771    0.0785593208
O        2.3968908844   -1.1105819908   -1.9590878990
H        5.1136195446    2.6489466006    0.8598383816
H        6.5587001703    0.4635788537    0.9155750812
H       -0.1492936654   -2.4814942103    0.5157424181
H        0.6786730062   -2.8061832335   -1.0173601085
H       -0.4214035066   -1.4097526850   -0.8787754760
H        4.9737862627   -1.4675243694   -0.0716304881
H        1.4721912384   -0.8087672428    1.0248961708
16   

C        4.7295060384    1.6350737763    0.6865844453
C        5.5686539283    0.5670774167    0.5600582122
C        3.5089765870    0.0044672064   -0.0735871949
C        2.4153475424   -0.7846518920   -0.7339572275
C        0.2971467671   -1.9820075803   -0.3353064720
N        3.4558559847    1.2816662283    0.2708790863
N        4.8100431025   -0.4830652980    0.0614919512
N        1.3902791884   -1.1263463176    0.1003718062
O        2.5754688343   -1.3727624983   -1.7985663748
H        5.0173735462    2.6172227636    1.0442422750
H        6.6272021604    0.5641346256    0.7932085905
H       -0.2644342768   -2.3452664358    0.5307282993
H        0.6788336289   -2.8509090880   -0.8815401678
H       -0.3823389428   -1.4218703106   -0.9862153915
H        5.1167255622   -1.4025419199   -0.2483027980
H        1.3517517870   -0.6435714635    0.9922093899
16   

C        4.6985519358    1.5776908469    0.7693968535
C        5.5948254467    0.5833403722    0.5070015711
C        3.5371066733   -0.0768055277   -0.0343336599
C        2.4655950417   -0.8932826960   -0.6819451928
C        0.2634606917   -1.9428199674   -0.3164523509
N        3.4245249438    1.1675542884    0.4095093683
N        4.8735282083   -0.4785304688   -0.0210484584
N        1.3677143191   -1.0938773080    0.1031564785
O        2.6719714094   -1.5913883265   -1.6698729530
H        4.9460883222    2.5486923153    1.1832645491
H        6.6648101566    0.6367366898    0.6718218898
H       -0.3546598421   -2.2095752541    0.5461553569
H        0.6353554201   -2.8690851521   -0.7667528721
H       -0.3588813293   -1.4160853657   -1.0474108994
H        5.2130959793   -1.3535295007   -0.4150759664
H        1.3004649899   -0.5143348587    0.9343512987
16   

C        4.6763545843    1.5230713450    0.8350521170
C        5.6089619016    0.6074725857    0.4437788154
C        3.5610353481   -0.1427786646   -0.0108016826
C        2.5035071606   -0.9922977241   -0.6243145789
C        0.2341291822   -1.8994497072   -0.2876519549
N        3.4060102789    1.0583554817    0.5317606062
N        4.9161110164   -0.4599295774   -0.1104415319
N        1.3555431158   -1.0620168944    0.1079048631
O        2.7263143370   -1.7695216847   -1.5477987939
H        4.8950725849    2.4769651029    1.3015881233
H        6.6828229195    0.7158811760    0.5436269655
H       -0.4235130840   -2.0762438591    0.5688376417
H        0.5847008000   -2.8708210215   -0.6518573741
H       -0.3407374902   -1.4085264491   -1.0797913997
H        5.2754646668   -1.2923197144   -0.5738045403
H        1.2845207048   -0.4073042927    0.8818962881
16   

C        4.6661069672    1.4853718203    0.8911860523
C        5.6130012395    0.6484575815    0.3770503567
C        3.5769968610   -0.1703082301   -0.0072538154
C        2.5293508529   -1.0505446598   -0.5840817702
C        0.2049298885   -1.8259417090   -0.2986424426
N        3.4014719723    0.9772487981    0.6364891848
N        4.9360674141   -0.4120662417   -0.2090094823
N        1.3415912743   -1.0011233169    0.0788877280
O        2.7594705235   -1.8848225680   -1.4546380828
H        4.8702684592    2.4136007933    1.4128360203
H        6.6849930226    0.8030526007    0.4201276274
H       -0.4832067760   -1.9265923668    0.5461621892
H        0.5330967198   -2.8296253872   -0.5887400568
H       -0.3289630343   -1.3695105157   -1.1385477265
H        5.3026591819   -1.2032749014   -0.7349936302
H        1.2754822350   -0.2946641257    0.8073555764
16   

C        4.6710550214    1.4243171279    0.8137310472
C        5.6052193907    0.6298480800    0.2157688434
C        3.5719331028   -0.2383075699   -0.0590719385
C        2.5224963279   -1.1632207415   -0.5525045880
C        0.1493855047   -1.7942351918   -0.2924934396
N        3.4075611273    0.8824392189    0.6328224804
N        4.9214243287   -0.4362461884   -0.3517952843
N        1.3064237372   -0.9701807502    0.0213162391
O        2.7490787602   -2.0804005799   -1.3363558040
H        4.8830485760    2.3442783414    1.3467806528
H        6.6731385551    0.8143235091    0.1944321493
H       -0.4983765328   -1.8807777646    0.5851852133
H        0.4552919451   -2.8047617173   -0.5833951087
H       -0.4198844491   -1.3474662498   -1.1139359026
H        5.2766511599   -1.2163293329   -0.9018433772
H        1.2564868658   -0.1982290851    0.6821912671
16   

C        4.6952781398    1.4614783985    0.8046246067
C        5.6166138279    0.7359314930    0.1074263217
C        3.5961947305   -0.1768895304   -0.1130692496
C        2.5577950162   -1.1330819576   -0.5670933840
C        0.1465690487   -1.6661148955   -0.4126956198
N        3.4404956645    0.8883192009    0.6633734561
N        4.9330744973   -0.3158715552   -0.4864259203
N        1.3119505624   -0.8476541869   -0.1107331554
O        2.8009782186   -2.0931261718   -1.2924868152
H        4.9106428729    2.3528732112    1.3829372355
H        6.6762391742    0.9544357600    0.0411609836
H       -0.4049560861   -1.8854584346    0.5067324651
H        0.4359016902   -2.6212943249   -0.8634259861
H       -0.5121223150   -1.1403744514   -1.1110161110
H        5.2829857300   -1.0639544912   -1.0824873283
H        1.2562563477   -0.0387178912    0.5042520179
16   

C        4.6688540033    1.4314804579    0.8022049489
C        5.5719951634    0.7452618812    0.0440213471
C        3.5596424431   -0.1961683269   -0.1222476130
C        2.5285891396   -1.1854084028   -0.5204617882
C        0.0965665365   -1.6104343192   -0.5651547295
N        3.4205677424    0.8363842567    0.7001405841
N        4.8827282711   -0.3018876951   -0.5515045401
N        1.2586465261   -0.8040161030   -0.2252516832
O        2.7862092203   -2.2111996485   -1.1436521052
H        4.8932855713    2.3081385076    1.3992919659
H        6.6242891628    0.9843526629   -0.0582070898
H       -0.1531556870   -2.2800206334    0.2641413942
H        0.2855002510   -2.2122317463   -1.4604259299
H       -0.7612011441   -0.9633410849   -0.7723024242
H        5.2260183348   -1.0404169653   -1.1630562032
H        1.1752234704    0.0850016764    0.2624429710
16   

C        4.6548235891    1.5242434435    0.8327893338
C        5.5409367847    0.8996831102    0.0044792716
C        3.5629827459   -0.1221022534   -0.0793840855
C        2.5629940109   -1.1690732804   -0.4095087915
C        0.1453444536   -1.6185019440   -0.6060712110
N        3.4304608704    0.8752787027    0.7865086100
N        4.8639555884   -0.1608133288   -0.5815754046
N        1.2717681472   -0.7578005937   -0.2817001897
O        2.8608809057   -2.2404574534   -0.9293571440
H        4.8762060183    2.3923955088    1.4432903078
H        6.5751946752    1.1861963485   -0.1476470996
H       -0.0646609587   -2.2945299655    0.2292106512
H        0.3565445644   -2.2133656479   -1.5009246694
H       -0.7445593712   -1.0136017201   -0.8048786046
H        5.2098647911   -0.8798451032   -1.2143471748
H        1.1440874260    0.1640766931    0.1281294519
16   

C        4.6856802049    1.4898906315    0.8832350721
C        5.5126624219    0.9434335427   -0.0541321563
C        3.5535548279   -0.1174133853   -0.0491424296
C        2.5590459430   -1.1873761687   -0.3365048661
C        0.1573784678   -1.6320004589   -0.6838482772
N        3.4760627884    0.8128176236    0.8941469796
N        4.8111181840   -0.0937124835   -0.6530592873
N        1.2668597236   -0.7527567114   -0.3502165672
O        2.8736648557   -2.2857705566   -0.7849331455
H        4.9396425607    2.3206921680    1.5318325122
H        6.5259250672    1.2637011053   -0.2677370720
H       -0.0978750533   -2.2585833919    0.1770824251
H        0.4146914406   -2.2774457695   -1.5301925775
H       -0.7199024298   -1.0407662525   -0.9633912476
H        5.1267421206   -0.7733473246   -1.3424007707
H        1.1136772367    0.1893543662   -0.0013364137
16   

C        4.7333150404    1.4555989010    0.9491297038
C        5.4786574292    0.9888007212   -0.0936811617
C        3.5484611130   -0.1172586434    0.0247179265
C        2.5552748425   -1.2076892152   -0.2175901739
C        0.1851156303   -1.6697699615   -0.7209154625
N        3.5443931865    0.7478720267    1.0295240666
N        4.7442879213   -0.0274987358   -0.6890911555
N        1.2740826509   -0.7672921664   -0.3805686888
O        2.8848054962   -2.3365398177   -0.5683747534
H        5.0312735197    2.2504368788    1.6235612586
H        6.4618012995    1.3458087729   -0.3780358063
H       -0.1247887966   -2.2354068434    0.1639989349
H        0.4928503677   -2.3718523172   -1.5028509730
H       -0.6719519769   -1.1010274650   -1.0941319327
H        5.0157220408   -0.6644142917   -1.4353145564
H        1.0965278001    0.1980432262   -0.1200334425
16   

C        4.7940849155    1.4083614029    1.0210831987
C        5.4371134822    1.0258336030   -0.1195217554
C        3.5459282549   -0.1260865222    0.1188487462
C        2.5397718985   -1.2212609754   -0.0886865250
C        0.2149150425   -1.6960877535   -0.7587017375
N        3.6298413600    0.6723063237    1.1715854794
N        4.6616677408    0.0342746861   -0.7046314277
N        1.2903313059   -0.7783933421   -0.4148611470
O        2.8644237852   -2.3848789442   -0.3019949864
H        5.1468873741    2.1637186540    1.7141700060
H        6.3818870644    1.4207154115   -0.4749978856
H       -0.1640117557   -2.1864404136    0.1441305367
H        0.5667699783   -2.4608795094   -1.4589426975
H       -0.6062989823   -1.1518191375   -1.2348590695
H        4.8722660008   -0.5494901732   -1.5110625763
H        1.1074348373    0.2092568705   -0.2698589507
16   

C        4.8723610902    1.3137514513    1.0786065093
C        5.3800811673    1.0337509895   -0.1562178483
C        3.5580667180   -0.1884563501    0.2217104678
C        2.5165119499   -1.2627034616    0.0398764768
C        0.2408555496   -1.7170651559   -0.7878618317
N        3.7463317865    0.5402931567    1.3076440882
N        4.5583413465    0.0667070149   -0.7190156035
N        1.3287912553   -0.8083404739   -0.4595645859
O        2.7822230934   -2.4596871106    0.0357653736
H        5.2915844682    2.0259190493    1.7803767535
H        6.2675900810    1.4803367036   -0.5896338361
H       -0.2268455602   -2.0912501310    0.1288891370
H        0.6096225953   -2.5664707336   -1.3724042091
H       -0.5167338821   -1.1980503862   -1.3829006176
H        4.6794975784   -0.4399898300   -1.5926301885
H        1.1846900571    0.1956865115   -0.4614550891
16   

C        4.9094430669    1.2287507087    1.0924415692
C        5.2719948269    1.0523503161   -0.2107292889
C        3.5488199585   -0.2649533940    0.2944957795
C        2.4515522293   -1.2848950335    0.1341041782
C        0.2200341944   -1.6768071751   -0.8242262382
N        3.8334757394    0.4108532980    1.3921617092
N        4.4118751353    0.1012401810   -0.7427991058
N        1.3734538840   -0.8261212921   -0.5750923971
O        2.5334283355   -2.4531891466    0.4951833948
H        5.3912117677    1.9043110328    1.7902532463
H        6.0895465128    1.5588389879   -0.7108985028
H       -0.2838417524   -1.9163046417    0.1182256004
H        0.5298026413   -2.6080121755   -1.3101434023
H       -0.4906347718   -1.1659937116   -1.4811221571
H        4.4294844896   -0.3174723072   -1.6692468222
H        1.3385627167    0.1658487142   -0.7815990697
16   

C        5.0036572413    1.1241755892    1.1194088032
C        5.2191940926    1.0600976767   -0.2256885678
C        3.5691913204   -0.3222545370    0.3569981397
C        2.4314409051   -1.2928350116    0.2278915038
C        0.2364111445   -1.6495673176   -0.8292057538
N        3.9686570098    0.2737745894    1.4658413354
N        4.3082934303    0.1453183594   -0.7364702612
N        1.4489899161   -0.8691132509   -0.6365441346
O        2.3300955304   -2.3462547056    0.8457850389
H        5.5566925554    1.7468764868    1.8135368343
H        5.9735202455    1.6179865108   -0.7687467063
H       -0.3307666987   -1.7062609703    0.1060106424
H        0.4851755287   -2.6643175263   -1.1574355953
H       -0.3942540301   -1.1853306041   -1.5935432264
H        4.2243422984   -0.1888464179   -1.6929148901
H        1.5145161294    0.0755885670   -0.9970970604
16   

C        5.1150122659    1.0733165906    1.1294027332
C        5.2046328892    1.1002923115   -0.2306501211
C        3.5879986625   -0.3018244100    0.4075761471
C        2.4358386728   -1.2509323584    0.3205404692
C        0.3015595623   -1.6891870636   -0.8329763004
N        4.1040013460    0.2101701810    1.5112074467
N        4.2361701781    0.2317695903   -0.7153405775
N        1.5228885528   -0.9171695976   -0.6611770699
O        2.2430357575   -2.2024823680    1.0683974569
H        5.7392787385    1.6410750794    1.8100993602
H        5.9148195203    1.6873322688   -0.8017709783
H       -0.3046612089   -1.6489885368    0.0783806935
H        0.5412711671   -2.7343106186   -1.0556314849
H       -0.2874585262   -1.2857905335   -1.6622855305
H        4.0713528703   -0.0420825821   -1.6800816835
H        1.6289838930   -0.0216506276   -1.1218553456
16   

C        5.1725192389    1.0049598805    1.1435706743
C        5.1612406479    1.1338140720   -0.2128816377
C        3.5382372493   -0.2581225233    0.4426320914
C        2.3686705432   -1.1811280171    0.3785961021
C        0.3152560977   -1.7222294745   -0.8788502469
N        4.1632910409    0.1452717391    1.5358146059
N        4.1274371682    0.3364912569   -0.6844332111
N        1.5305477178   -0.9419754838   -0.7000397653
O        2.1032385580   -2.0506607218    1.2005478197
H        5.8669221334    1.4978050622    1.8146138899
H        5.8489561596    1.7398776396   -0.7915614794
H       -0.3401322794   -1.6102302114   -0.0083738198
H        0.5604015285   -2.7819777929   -1.0059660864
H       -0.2251071755   -1.3831009711   -1.7678856055
H        3.8959789121    0.1340047007   -1.6525344264
H        1.6718818832   -0.0957961083   -1.2363016818
16   

C        5.0832897103    1.3614652685   -0.2694803142
C        5.2525163134    0.4077856388    0.6878112366
C        3.2538098348    0.1682860226   -0.2934775001
C        1.8966973811   -0.3547988696   -0.6143295699
C        0.3672442084   -2.2777980944   -0.3632805211
N        3.8459737994    1.2043607713   -0.8645657948
N        4.0989139652   -0.3640652491    0.6956225443
N        1.6456277818   -1.6279538838   -0.1148627204
O        1.0441197024    0.2371661977   -1.2664148494
H        5.8042469066    2.1301267642   -0.5239540234
H        6.1270103020    0.3012432669    1.3194833984
H        0.3573362856   -3.2773189304    0.0819183856
H        0.1925549172   -2.3742644678   -1.4403283386
H       -0.4470014438   -1.6936243811    0.0784515204
H        3.8642622094   -1.1044411156    1.3488782555
H        2.4154665950   -2.1621488721    0.2629676201
16   

C        5.0683914873    1.6191547442    0.0278255109
C        5.2976647296    0.5658004463    0.8593190360
C        3.3389142602    0.3012334834   -0.1957897220
C        2.0515908334   -0.2837419663   -0.6657058408
C        0.4727645391   -2.1720982746   -0.4435158050
N        3.8600386838    1.4424515585   -0.6179987562
N        4.2105042507   -0.2886692807    0.7373439722
N        1.7083713091   -1.4962943763   -0.0755069432
O        1.3159917476    0.2184661867   -1.5081648706
H        5.7322717645    2.4647733931   -0.1120488382
H        6.1744358633    0.4397707168    1.4841835957
H        0.3892994290   -3.1252158205    0.0874371633
H        0.4558353728   -2.3732560835   -1.5200374424
H       -0.3912300215   -1.5510726482   -0.1836708738
H        4.0845712923   -1.1789090962    1.2059251352
H        2.2945320587   -1.8827594422    0.6488751325
