27   

C       -4.3488165298    0.0067963789    1.6017584700
C       -3.0710161919   -1.4971825999    0.2018905560
C       -3.1788926840    0.3837541391    2.2653526327
C       -1.8983921629   -1.1003065314    0.8565401664
C       -4.3105141943   -0.9378493902    0.5599144418
C       -1.9401902277   -0.1638886900    1.9047006533
C       -0.6842972660    1.5158598196    3.9273807294
C        0.8130333930    0.7238752247    1.6908990570
C       -5.5347088794   -1.3838027287   -0.1859329166
C       -6.8028352728   -0.5595854737   -0.0601155550
C       -0.1344275283   -1.2137226219    3.5242908725
O       -5.5059842510   -2.3413357911   -0.9492857346
S       -0.4135276777    0.3884763637    2.7459794560
H       -5.2826335233    0.4603339594    1.9137746980
H       -3.0106508978   -2.2282912216   -0.5987548156
H       -3.2335827778    1.1229727054    3.0592488981
H       -0.9491557791   -1.5214811650    0.5403750823
H       -0.0847783246    2.4158088858    3.9563099779
H       -1.4401373139    1.3537274802    4.6834424083
H        1.4348129205    1.5938063071    1.8559538336
H        0.9849557093    0.1006879278    0.8246826411
H       -6.5804556961    0.4997864776   -0.2134023415
H       -7.2456842721   -0.7050255959    0.9285287241
H       -7.5248430148   -0.8757880954   -0.8186406981
H        0.7453859075   -1.1367025979    4.1661342572
H       -1.0048850573   -1.4783632626    4.1273703930
H        0.0395135572   -1.9699942254    2.7579050737
27   

C       -4.3816756730   -0.0690502431    1.7008185330
C       -3.1022815143   -1.5161853936    0.2418563896
C       -3.2048783324    0.3266669872    2.3412872307
C       -1.9235074802   -1.1005855099    0.8733028083
C       -4.3439849782   -0.9957302678    0.6453361776
C       -1.9620789998   -0.1829148190    1.9386671069
C       -0.6954198416    1.4978516694    3.9533414274
C        0.7592981264    0.7807800207    1.6642703543
C       -5.5745229927   -1.4432099856   -0.0897748728
C       -6.7410593191   -0.4778210177   -0.1889649791
C       -0.0854732149   -1.2104146536    3.4912267579
O       -5.5908935972   -2.4877319977   -0.7290280358
S       -0.4276986359    0.3959477472    2.7475259393
H       -5.3226983584    0.3519845061    2.0368466511
H       -3.0483498104   -2.2304592855   -0.5742927408
H       -3.2574880397    1.0511794416    3.1487534245
H       -0.9723373875   -1.4911592192    0.5252775110
H       -0.1202367816    2.4136376506    3.9793029161
H       -1.4245086841    1.3034632030    4.7278430986
H        1.3611171912    1.6653818100    1.8253146348
H        0.9246301246    0.1749212095    0.7845885128
H       -6.3762103279    0.5366454832   -0.3709941941
H       -7.3205315595   -0.4982366155    0.7374524175
H       -7.3912992336   -0.7683386130   -1.0191955979
H        0.8096185938   -1.1203878348    4.1098333984
H       -0.9316332851   -1.5075268103    4.1134637027
H        0.0865851307   -1.9496122186    2.7079372668
27   

C       -4.3884823884   -0.1109161454    1.7734180605
C       -3.0968796649   -1.5019768800    0.2700915651
C       -3.2121211219    0.2994508685    2.4057508250
C       -1.9189521666   -1.0718080867    0.8931932566
C       -4.3422949139   -1.0194268138    0.7050634066
C       -1.9636390859   -0.1754192841    1.9768637151
C       -0.7055245626    1.4967388800    4.0038883791
C        0.7326599123    0.8498460235    1.6836692617
C       -5.5737723868   -1.4689099375   -0.0301289147
C       -6.6083132631   -0.4171163194   -0.3813399113
C       -0.0456500494   -1.1902697520    3.4864745936
O       -5.6467624492   -2.5890661080   -0.5190249635
S       -0.4310104615    0.4213502133    2.7759420872
H       -5.3376885498    0.2811069714    2.1219522096
H       -3.0433648489   -2.1992973120   -0.5605465574
H       -3.2696461942    1.0081575375    3.2267869018
H       -0.9640905993   -1.4339253448    0.5250833950
H       -0.1498356638    2.4242189501    4.0377726317
H       -1.4192835607    1.2733815775    4.7848407015
H        1.3173473010    1.7445859206    1.8516622442
H        0.8996530326    0.2620375508    0.7921500009
H       -6.1133083621    0.5150880740   -0.6666423432
H       -7.2593996534   -0.2348634651    0.4771691243
H       -7.2173959037   -0.7623220388   -1.2216930607
H        0.8560984822   -1.0926477802    4.0941662832
H       -0.8767155960   -1.5155129455    4.1149762106
H        0.1302115295   -1.9121659923    2.6880347087
27   

C       -4.4130685197   -0.1523224976    1.8793171763
C       -3.1494055623   -1.4691470829    0.2894700850
C       -3.2237494020    0.2648786507    2.4819351345
C       -1.9583256192   -1.0329565775    0.8830887956
C       -4.3862697554   -1.0286118448    0.7852454381
C       -1.9821224411   -0.1708275849    1.9951266736
C       -0.6855600859    1.4724838439    4.0216481234
C        0.6883834987    0.9024016414    1.6426933831
C       -5.6419919912   -1.4758773783    0.0858991540
C       -6.5306625868   -0.3907090430   -0.4878215952
C       -0.0043355997   -1.1914118803    3.4188568953
O       -5.8115464347   -2.6471687114   -0.2256672519
S       -0.4341861073    0.4308943451    2.7600920445
H       -5.3592732108    0.2067804250    2.2694398949
H       -3.1155552228   -2.1415341192   -0.5622600406
H       -3.2666131089    0.9473592942    3.3257486230
H       -1.0100344234   -1.3640640892    0.4713579161
H       -0.1426567842    2.4072867252    4.0608451575
H       -1.3710755168    1.2197248658    4.8187947371
H        1.2648263764    1.8018761625    1.8138770647
H        0.8369272090    0.3376576788    0.7332183329
H       -5.9175810073    0.3996942424   -0.9291160004
H       -7.1545743543    0.0348133946    0.3018917734
H       -7.1765866252   -0.8108717516   -1.2639896800
H        0.9150967775   -1.0955023610    3.9997217266
H       -0.8102978227   -1.5432640431    4.0655044499
H        0.1550886819   -1.8916495707    2.5979843756
27   

C       -4.4165738331   -0.1516760970    2.0014846309
C       -3.2100508022   -1.4342683336    0.3439659231
C       -3.2080310820    0.2555369814    2.5711384517
C       -1.9987443344   -1.0086999513    0.9041528318
C       -4.4280687429   -1.0032668278    0.8886396229
C       -1.9839501483   -0.1683816090    2.0329388597
C       -0.6202331951    1.4331482975    4.0484745278
C        0.6705731517    0.9178942537    1.6112026193
C       -5.7204695383   -1.4390049440    0.2419886151
C       -6.4470653211   -0.3930635208   -0.5772041361
C        0.0435606882   -1.2158408716    3.3647409208
O       -6.0350565590   -2.6193555765    0.1777715815
S       -0.4111882599    0.4194899514    2.7568488465
H       -5.3504326447    0.1947211014    2.4312028499
H       -3.2060391563   -2.0924016067   -0.5191111456
H       -3.2228497896    0.9199670737    3.4301820937
H       -1.0650292756   -1.3317310106    0.4544624732
H       -0.0785896560    2.3686164899    4.0887965747
H       -1.2767487623    1.1611704650    4.8635497527
H        1.2504785271    1.8153346574    1.7814181500
H        0.7885539792    0.3730196262    0.6853115494
H       -5.7281067316    0.1998904051   -1.1488935610
H       -7.0126211744    0.2678375062    0.0842498271
H       -7.1376705100   -0.8785909209   -1.2725315803
H        0.9817469108   -1.1303347724    3.9165158894
H       -0.7395939978   -1.5839390815    4.0301414621
H        0.1766758287   -1.8974486896    2.5237791996
27   

C       -4.4217522350   -0.1250953566    2.0681827124
C       -3.2555117368   -1.3273542539    0.3272788027
C       -3.2013645864    0.2585178487    2.6281395860
C       -2.0312884199   -0.9263909218    0.8783503719
C       -4.4606999716   -0.9138963362    0.9108675281
C       -1.9901230371   -0.1369109200    2.0423126389
C       -0.5782109682    1.3827630527    4.0893858490
C        0.6639477671    0.9483472007    1.6109485093
C       -5.7796197262   -1.3516149503    0.3156984732
C       -6.3687779973   -0.4433651550   -0.7417305889
C        0.0537017491   -1.2426603683    3.2971194368
O       -6.3464646755   -2.3736095723    0.6755539587
S       -0.4009924838    0.4164730430    2.7574727510
H       -5.3472822539    0.1876873676    2.5402017884
H       -3.2672921497   -1.9519854734   -0.5597760499
H       -3.1979906919    0.8787498193    3.5196971461
H       -1.1075406659   -1.2309239045    0.3962983166
H       -0.0275974093    2.3115117281    4.1550109334
H       -1.2230375308    1.0862158311    4.9052468348
H        1.2545709795    1.8341623902    1.8037628283
H        0.7607108799    0.4373563545    0.6635827399
H       -5.6899710638   -0.3797085135   -1.5961175216
H       -6.5207155745    0.5572119664   -0.3285465157
H       -7.3308194572   -0.8398344775   -1.0787616108
H        1.0025822978   -1.1831430636    3.8338226812
H       -0.7194013156   -1.6296135003    3.9636364485
H        0.1660771993   -1.8941789667    2.4297244970
27   

C       -4.4387525548   -0.0965164660    2.1113813873
C       -3.2957234790   -1.2187368276    0.3057521522
C       -3.2124608497    0.2744950467    2.6660872671
C       -2.0648437097   -0.8308661715    0.8519785135
C       -4.4952186106   -0.8308238447    0.9190062281
C       -2.0088943516   -0.0875714010    2.0449709132
C       -0.5693421319    1.3659921839    4.1228906011
C        0.6434979103    1.0069794923    1.6174047747
C       -5.8240149354   -1.2863909270    0.3672960829
C       -6.3018510717   -0.6052973810   -0.8974944316
C        0.0465048772   -1.2324606247    3.2408497080
O       -6.5743861200   -1.9989143833    1.0196222333
S       -0.4113377211    0.4433430560    2.7581652860
H       -5.3595803629    0.1798820484    2.6150564313
H       -3.3141934732   -1.8130203321   -0.6015344240
H       -3.1996039458    0.8552192539    3.5837455522
H       -1.1468339169   -1.1119486798    0.3453130687
H       -0.0122527771    2.2887034862    4.2137235509
H       -1.2084548151    1.0469598406    4.9347685838
H        1.2414834089    1.8825904772    1.8328170138
H        0.7265072925    0.5273537965    0.6525399205
H       -5.7732167656   -1.0150034714   -1.7616542297
H       -6.1123732595    0.4696983929   -0.8362571779
H       -7.3756830518   -0.7687385559   -1.0254408763
H        1.0019572194   -1.1911423288    3.7675170891
H       -0.7191604379   -1.6383115162    3.9047490421
H        0.1467263195   -1.8571413478    2.3524966641
27   

C       -4.4489453191   -0.0538478582    2.1395946020
C       -3.3335113577   -1.1196901758    0.2851788194
C       -3.2151542804    0.2979726665    2.6894473723
C       -2.0946255772   -0.7504884782    0.8267824830
C       -4.5260980413   -0.7493738575    0.9242020106
C       -2.0209237276   -0.0456159982    2.0415750680
C       -0.5504296854    1.3370587046    4.1471378846
C        0.6277475652    1.0594704201    1.6148535636
C       -5.8642697420   -1.1891262629    0.3924812833
C       -6.2258831995   -0.7560313169   -1.0135567274
C        0.0492969074   -1.2304260577    3.1718209937
O       -6.7144714721   -1.6657616972    1.1324155995
S       -0.4132991714    0.4605120567    2.7502037947
H       -5.3621408822    0.2075962046    2.6652632827
H       -3.3609853646   -1.6861713297   -0.6393259424
H       -3.1898559480    0.8491755310    3.6248907096
H       -1.1838220861   -1.0166225344    0.2994587513
H        0.0112145401    2.2542990804    4.2620553268
H       -1.1807507569    0.9931690742    4.9557465093
H        1.2315383834    1.9255071841    1.8517312703
H        0.6952815405    0.6132133470    0.6329381254
H       -5.7313348668   -1.4036451805   -1.7414832389
H       -5.9115261930    0.2781762751   -1.1774654742
H       -7.3082250639   -0.8224468075   -1.1562361483
H        1.0120309089   -1.2067006632    3.6861932079
H       -0.7074061764   -1.6569424692    3.8330357262
H        0.1365496736   -1.8260595503    2.2624311184
27   

C       -4.4344825176   -0.0502962341    2.2203756655
C       -3.3602632500   -1.0355993572    0.3005023671
C       -3.1900443577    0.2876596215    2.7538534936
C       -2.1104346382   -0.6805259258    0.8267388375
C       -4.5415354679   -0.7020477168    0.9814922049
C       -2.0104315334   -0.0238050125    2.0658298661
C       -0.4967546691    1.2970645548    4.1811582824
C        0.6291400692    1.0961871293    1.6175887738
C       -5.8945311045   -1.1144417613    0.4730791262
C       -6.1818128733   -0.9302841964   -1.0044203437
C        0.0815383180   -1.2390486845    3.1166170416
O       -6.8039237249   -1.3899873030    1.2449137102
S       -0.3889346835    0.4636261110    2.7555786118
H       -5.3342861279    0.1911979174    2.7781059193
H       -3.4014586488   -1.5637057585   -0.6457660698
H       -3.1458636332    0.8042092797    3.7081751538
H       -1.2111681207   -0.9195290421    0.2675518600
H        0.0679015290    2.2102512054    4.3124559980
H       -1.1110965838    0.9293267647    4.9915589149
H        1.2381660510    1.9546951715    1.8681130890
H        0.6765474193    0.6797479428    0.6215242217
H       -5.7711166455   -1.7695422929   -1.5710220236
H       -5.7347797055    0.0021719253   -1.3594746300
H       -7.2622298040   -0.8862647907   -1.1691414666
H        1.0547179190   -1.2306370479    3.6114307129
H       -0.6615131378   -1.6851774892    3.7803763180
H        0.1493227203   -1.8069948463    2.1880525236
27   

C       -4.2201420790    0.7068329908    1.5190521868
C       -3.6042148101   -1.5195377934    0.8303487125
C       -2.9462364279    0.9032229935    2.0536349944
C       -2.3184011550   -1.3157073938    1.3504071751
C       -4.5683908196   -0.5000482721    0.8896741957
C       -1.9777973520   -0.1054049235    1.9787868264
C       -0.0864077643    1.6948086010    3.2803143282
C        0.8925800326   -0.3511126668    1.6267473956
C       -5.9662549242   -0.6944620598    0.3764169724
C       -6.1806562670   -1.6567428589   -0.7774529522
C       -0.5188750357   -0.9887121449    3.9927535308
O       -6.8891030063    0.0121828231    0.7614863338
S       -0.2981078581    0.1834113432    2.6406322769
H       -4.9534579063    1.5040299740    1.5959300505
H       -3.8331290107   -2.4761020384    0.3741757309
H       -2.7092676508    1.8546698799    2.5207199911
H       -1.5793878976   -2.1062634894    1.2645048912
H        0.7857484716    2.2744781624    3.0095403832
H       -0.8012670405    2.1034764816    3.9812959801
H        1.7837596996    0.2474601431    1.4916922686
H        0.7816916629   -1.2757804291    1.0785450288
H       -6.2109609969   -2.6837657836   -0.4049815816
H       -5.3742732785   -1.5545366225   -1.5086678033
H       -7.1297727849   -1.4326835493   -1.2729426786
H        0.3794617311   -0.9727797858    4.6130303624
H       -1.3812273320   -0.6897434242    4.5916299838
H       -0.6662430735   -1.9915551172    3.5903593161
27   

C       -4.2131908735    0.7400159221    1.5145861254
C       -3.5870721371   -1.4616152696    0.7584611866
C       -2.9445272138    0.9212360801    2.0663294841
C       -2.3063473754   -1.2716129262    1.2963701919
C       -4.5563186571   -0.4484044176    0.8468584952
C       -1.9737623308   -0.0825742630    1.9675844081
C       -0.0970754906    1.6773160413    3.3439394375
C        0.9001622766   -0.3078687313    1.6283131626
C       -5.9440993839   -0.6186593543    0.2998003450
C       -6.2119255793   -1.7638552265   -0.6597871918
C       -0.5263152654   -1.0299726485    3.9602859836
O       -6.8316429881    0.1874589181    0.5489318291
S       -0.2996750106    0.1884507375    2.6507827682
H       -4.9451568153    1.5368362869    1.6069750261
H       -3.7988458280   -2.4039474677    0.2666281556
H       -2.7128157030    1.8584783628    2.5638110335
H       -1.5638109414   -2.0562142990    1.1888314129
H        0.7757727765    2.2679575450    3.1004517821
H       -0.8189028933    2.0601796788    4.0522982008
H        1.7908398542    0.2970578434    1.5210709774
H        0.7956776914   -1.2128807007    1.0470470336
H       -6.2110467688   -2.7132043768   -0.1181073409
H       -5.4517542904   -1.7838574943   -1.4452451944
H       -7.1907693625   -1.6290108169   -1.1292086456
H        0.3675753125   -1.0326343229    4.5871443741
H       -1.3938220512   -0.7541753703    4.5628030972
H       -0.6675561628   -2.0188366967    3.5226555242
27   

C       -4.2222296845    0.7694594183    1.4982090697
C       -3.5737315108   -1.4015995069    0.6760367570
C       -2.9613827239    0.9393776726    2.0710806265
C       -2.3009394411   -1.2223750935    1.2361522064
C       -4.5521734655   -0.3994649591    0.7899398255
C       -1.9834280807   -0.0548241539    1.9506289518
C       -0.1275671429    1.6757448393    3.3912533680
C        0.8947649441   -0.2586168200    1.6327465933
C       -5.9256826855   -0.5466895307    0.2006526628
C       -6.2678760456   -1.8241180250   -0.5443273111
C       -0.5508483218   -1.0489704307    3.9303830129
O       -6.7692166622    0.3332209562    0.3186974559
S       -0.3169877792    0.2051831398    2.6565471398
H       -4.9573037465    1.5617857577    1.6036723237
H       -3.7665647810   -2.3246519378    0.1420269321
H       -2.7404129037    1.8620638395    2.5996731035
H       -1.5511722454   -1.9970253427    1.1084211255
H        0.7448262464    2.2763562716    3.1715986526
H       -0.8577061461    2.0368409150    4.1024763621
H        1.7834804082    0.3530066578    1.5498873615
H        0.8002996412   -1.1483828129    1.0267592453
H       -6.1707780668   -2.6853777037    0.1217506785
H       -5.6071681762   -1.9438456220   -1.4069680990
H       -7.3006522456   -1.7758659674   -0.9017873979
H        0.3377472367   -1.0660260051    4.5645020629
H       -1.4242872181   -0.7921148021    4.5326664510
H       -0.6853053502   -2.0258632840    3.4646127238
27   

C       -4.1924902956    0.7764068913    1.4597236779
C       -3.5194672300   -1.3742824164    0.6032284418
C       -2.9443425889    0.9371118704    2.0623184589
C       -2.2589020672   -1.2037382068    1.1928691702
C       -4.5042528527   -0.3794008216    0.7230724694
C       -1.9605511278   -0.0513695080    1.9399700366
C       -0.1451691623    1.6499380776    3.4641763805
C        0.9240427587   -0.2173902668    1.6620536401
C       -5.8567386907   -0.5116397673    0.0845874935
C       -6.2946459247   -1.8770409638   -0.4136132894
C       -0.5484074815   -1.0944441205    3.9105889737
O       -6.6407855521    0.4283835616    0.0507327971
S       -0.3081667319    0.2015663490    2.6806700740
H       -4.9311375944    1.5658211563    1.5620100962
H       -3.6988427596   -2.2801015716    0.0356756038
H       -2.7364341208    1.8496436816    2.6134002056
H       -1.5026697267   -1.9711493022    1.0597627244
H        0.7243287928    2.2656813611    3.2773424039
H       -0.8902825612    1.9814483164    4.1742731315
H        1.8077261057    0.4050770277    1.6128471542
H        0.8473896674   -1.0873925495    1.0256005335
H       -6.1116516086   -2.6356632778    0.3519046794
H       -5.7511577541   -2.1326989626   -1.3268866667
H       -7.3655937862   -1.8612424598   -0.6360960222
H        0.3299275513   -1.1215023993    4.5585009743
H       -1.4344499250   -0.8661956619    4.5059048800
H       -0.6636886209   -2.0576704857    3.4123843635
27   

C       -4.2183612899    0.7519601122    1.4576264944
C       -3.5019315319   -1.3574016490    0.5359401149
C       -2.9805141600    0.9089358025    2.0825671321
C       -2.2518568184   -1.1907762891    1.1481786814
C       -4.5035223185   -0.3835481669    0.6811245663
C       -1.9807019276   -0.0611495514    1.9395328504
C       -0.2080667018    1.6138066964    3.5419440316
C        0.9097349189   -0.1768039472    1.6920399048
C       -5.8368665386   -0.5055728006    0.0008454661
C       -6.3846560537   -1.8965271660   -0.2626681008
C       -0.5764197524   -1.1490104024    3.8911729338
O       -6.5498393348    0.4733499307   -0.1792377620
S       -0.3408912315    0.1906571396    2.7081098265
H       -4.9691458957    1.5283545245    1.5704378729
H       -3.6681078024   -2.2396201805   -0.0720628284
H       -2.7920456023    1.8057047934    2.6655822987
H       -1.4821848798   -1.9411659678    0.9963961877
H        0.6552712102    2.2469583011    3.3874363596
H       -0.9669002736    1.9115258169    4.2524478563
H        1.7853793970    0.4586215790    1.6755962968
H        0.8530301536   -1.0252796463    1.0251495176
H       -6.1676796273   -2.5546675732    0.5828667881
H       -5.9367029582   -2.3061665261   -1.1715543164
H       -7.4693010233   -1.8466579797   -0.3953743789
H        0.2949734168   -1.1856092410    4.5479287385
H       -1.4721905389   -0.9530801920    4.4833982590
H       -0.6724009530   -2.0964239212    3.3596557432
27   

C       -4.2076365429    0.7674524562    1.4102081006
C       -3.4455602006   -1.3090920752    0.4516645659
C       -2.9835356553    0.9252708755    2.0618905872
C       -2.2088850068   -1.1415851428    1.0900401604
C       -4.4628448900   -0.3540081309    0.6051976206
C       -1.9679422020   -0.0281415707    1.9139732780
C       -0.2517162577    1.6258211271    3.5977711804
C        0.9279014548   -0.0807964549    1.7077217949
C       -5.7763609643   -0.4697080041   -0.1167952431
C       -6.4578904304   -1.8245601312   -0.1369137747
C       -0.5698523857   -1.1530502450    3.8509895814
O       -6.3881351485    0.5266069808   -0.4792609091
S       -0.3447566928    0.2289244382    2.7155183668
H       -4.9704798486    1.5322378175    1.5207302821
H       -3.5960312290   -2.1744864359   -0.1843567278
H       -2.8167134995    1.8110542357    2.6678671489
H       -1.4259739443   -1.8768354985    0.9321112506
H        0.6019932262    2.2792994676    3.4783174978
H       -1.0273138248    1.8861018339    4.3048498512
H        1.7919160876    0.5702798624    1.7269012482
H        0.8964040970   -0.9060318409    1.0106479183
H       -6.3256834037   -2.3249322929    0.8260359092
H       -6.0315853871   -2.4434064295   -0.9302663697
H       -7.5283364247   -1.6982291308   -0.3228907183
H        0.2928250005   -1.1936569814    4.5189319385
H       -1.4776497524   -0.9943529972    4.4359521750
H       -0.6387261454   -2.0843880100    3.2878238116
27   

C       -4.1889042246    0.7039740334    1.3779916144
C       -3.3570585118   -1.3266086806    0.3753639737
C       -2.9809131645    0.8723073994    2.0571020597
C       -2.1369068051   -1.1477353421    1.0415451927
C       -4.3983977144   -0.4013977464    0.5408214817
C       -1.9395603342   -0.0528177388    1.9019838881
C       -0.2961016889    1.5904268843    3.6676678172
C        0.9611035289   -0.0295760310    1.7515470950
C       -5.6904743889   -0.5369377405   -0.2206793346
C       -6.4898002691   -1.8063875157   -0.0059985335
C       -0.5499714732   -1.2008758593    3.8315164528
O       -6.1994535025    0.4252152077   -0.7794711878
S       -0.3383243541    0.2195309367    2.7417778057
H       -4.9727746282    1.4467706867    1.4895049025
H       -3.4792294745   -2.1743081322   -0.2901544681
H       -2.8458497022    1.7447778055    2.6897133491
H       -1.3329379529   -1.8583653892    0.8768560564
H        0.5446358474    2.2661965532    3.5862457329
H       -1.0920140509    1.8114869047    4.3654268198
H        1.8095644649    0.6394365659    1.8091286755
H        0.9623782136   -0.8325711524    1.0282507417
H       -6.4452290600   -2.1026730578    1.0453434396
H       -6.0843457551   -2.6098021063   -0.6257415589
H       -7.5349958449   -1.6383468988   -0.2809994713
H        0.3009101567   -1.2404165722    4.5144855964
H       -1.4721645963   -1.0820031303    4.4032201798
H       -0.5849839201   -2.1163361023    3.2398914899
27   

C       -4.1924729872    0.6681643953    1.3354388138
C       -3.3027936965   -1.3228581968    0.3001728804
C       -2.9975046099    0.8460823828    2.0354379873
C       -2.0958847534   -1.1331184581    0.9868112918
C       -4.3627136529   -0.4216210022    0.4710180611
C       -1.9342984070   -0.0536245211    1.8743690178
C       -0.3569558083    1.5739253529    3.7134477839
C        0.9667956999    0.0517719356    1.7626299642
C       -5.6446736539   -0.5849912032   -0.3096826779
C       -6.5731713647   -1.6943565590    0.1375361557
C       -0.5351880623   -1.2263932100    3.7844789580
O       -6.0240991822    0.2691599453   -1.0984207638
S       -0.3510220696    0.2335510721    2.7429271922
H       -4.9941714483    1.3904352692    1.4521855259
H       -3.4019848607   -2.1577412813   -0.3852926019
H       -2.8891048816    1.7062073987    2.6897425034
H       -1.2749274189   -1.8229073349    0.8174548822
H        0.4669757010    2.2732359723    3.6660721225
H       -1.1675885528    1.7512735433    4.4067028932
H        1.7971540086    0.7394062103    1.8543858074
H        0.9971272956   -0.7250449029    1.0118406135
H       -6.6140513726   -1.7294099687    1.2294069896
H       -6.2124600039   -2.6540562803   -0.2405356729
H       -7.5805362804   -1.5146198722   -0.2486945358
H        0.3081253202   -1.2634773693    4.4769233093
H       -1.4673008753   -1.1521625718    4.3475138083
H       -0.5361872138   -2.1232524701    3.1640363692
27   

C       -4.2069201594    0.6035321297    1.2957852858
C       -3.2460152111   -1.3239299654    0.2012285185
C       -3.0226274927    0.7941373556    2.0109786773
C       -2.0509963066   -1.1202734979    0.9040026655
C       -4.3294766277   -0.4541858033    0.3850354507
C       -1.9300689555   -0.0657900286    1.8278214514
C       -0.4180962736    1.5484738291    3.7320275489
C        0.9690268226    0.1188306141    1.7552260836
C       -5.6149615507   -0.6744051349   -0.3797598735
C       -6.6451603233   -1.5605455924    0.2877461745
C       -0.5228319997   -1.2562435930    3.7201538699
O       -5.7826053939   -0.2340659945   -1.5078751646
S       -0.3648017999    0.2375608476    2.7231811151
H       -5.0342233195    1.2901181178    1.4418211173
H       -3.3208564467   -2.1413311077   -0.5084271901
H       -2.9465995013    1.6312315612    2.6988430012
H       -1.2093044389   -1.7810347722    0.7212028431
H        0.3875714316    2.2701245718    3.7150147031
H       -1.2405713196    1.6838296734    4.4207388086
H        1.7802134739    0.8242957708    1.8777034406
H        1.0287149696   -0.6347925240    0.9828068935
H       -7.0620192172   -1.0502433799    1.1597782643
H       -6.1808042873   -2.4972384285    0.6068948159
H       -7.4529379046   -1.7852900707   -0.4146226844
H        0.3138192678   -1.2924821657    4.4206820492
H       -1.4623731467   -1.2219511015    4.2745973885
H       -0.4946713678   -2.1344000931    3.0740621224
27   

C       -4.2081317878    0.5345703435    1.2943855429
C       -3.1639766785   -1.3300375306    0.1640888181
C       -3.0369148466    0.7532930285    2.0233666924
C       -1.9832486338   -1.0968046497    0.8811127215
C       -4.2782694235   -0.5000400064    0.3514471683
C       -1.9102388041   -0.0592740725    1.8291062663
C       -0.4816634133    1.5588406125    3.7927295181
C        0.9795454573    0.2427855997    1.7909138480
C       -5.5526347132   -0.7931453204   -0.4023735752
C       -6.6777805187   -1.4133370126    0.4002738803
C       -0.4728299759   -1.2466320138    3.7019677665
O       -5.5898258475   -0.7759955826   -1.6247238126
S       -0.3663376662    0.2799026730    2.7484691521
H       -5.0646932503    1.1795243811    1.4589859610
H       -3.2075091632   -2.1377615530   -0.5596833245
H       -2.9990457422    1.5733384002    2.7345429737
H       -1.1169926119   -1.7233516235    0.6927612731
H        0.2941649681    2.3125938775    3.8036070748
H       -1.3143035305    1.6407740600    4.4776373448
H        1.7606079744    0.9762845827    1.9411933207
H        1.0761607976   -0.4857361318    0.9983524544
H       -7.2034584347   -0.6369533079    0.9615374235
H       -6.2761741578   -2.1528940577    1.0980199419
H       -7.3848650221   -1.9081701795   -0.2715700768
H        0.3578754061   -1.2687701749    4.4101209169
H       -1.4182209904   -1.2662465156    4.2470923143
H       -0.4026268826   -2.1045209221    3.0322464399
27   

C       -4.2186814225    0.4453561135    1.3219841278
C       -3.1124549210   -1.3531654813    0.1398591527
C       -3.0517833658    0.6868399600    2.0510823509
C       -1.9379816688   -1.0957593498    0.8583367968
C       -4.2548099593   -0.5660383003    0.3514405747
C       -1.8976008534   -0.0797296155    1.8313022575
C       -0.5157341551    1.5433053214    3.8231415891
C        0.9794685416    0.3196530261    1.7881400718
C       -5.5109527480   -0.9022391278   -0.4071604098
C       -6.7359247782   -1.2563795636    0.4126320418
C       -0.4139733806   -1.2589333003    3.6727614362
O       -5.4818756450   -1.1388835462   -1.6073905860
S       -0.3618858552    0.2905707431    2.7523415407
H       -5.0960504506    1.0548847847    1.5095239172
H       -3.1307917140   -2.1457483170   -0.6019319291
H       -3.0392540045    1.4887693842    2.7834833183
H       -1.0514260999   -1.6872355391    0.6519136687
H        0.2330650198    2.3236954879    3.8448271397
H       -1.3459521328    1.5815182532    4.5147735347
H        1.7348983974    1.0773566170    1.9489051491
H        1.0979459469   -0.3901530681    0.9816615035
H       -7.2370468275   -0.3436790609    0.7441424377
H       -6.4443166049   -1.8464173668    1.2855284874
H       -7.4316092274   -1.8436110855   -0.1935354375
H        0.4207749760   -1.2696866158    4.3764065654
H       -1.3553461540   -1.3210530748    4.2216398519
H       -0.3198847891   -2.0993881033    2.9840889901
27   

C       -4.2941652945    0.3574262534    1.3353479871
C       -3.1272404915   -1.3842180745    0.1243676548
C       -3.1301634812    0.6383651939    2.0550663066
C       -1.9572213052   -1.0855447538    0.8336799335
C       -4.3010067146   -0.6484120983    0.3566431149
C       -1.9485871938   -0.0792593481    1.8171616485
C       -0.6187996800    1.5667083732    3.8248723249
C        0.9075203696    0.4457218820    1.7544031318
C       -5.5420513108   -1.0362612518   -0.3973081660
C       -6.8409699635   -1.1209980262    0.3814338932
C       -0.3964591274   -1.2257816544    3.6235827600
O       -5.4796718488   -1.4857517723   -1.5343627884
S       -0.4211606995    0.3405562494    2.7307155935
H       -5.1905623872    0.9324073101    1.5403013168
H       -3.1176930300   -2.1721184861   -0.6227969938
H       -3.1420725395    1.4327803045    2.7956428162
H       -1.0497703657   -1.6388497191    0.6127462684
H        0.0951797654    2.3788537565    3.8533878384
H       -1.4424668910    1.5557497047    4.5252743801
H        1.6305756524    1.2330757239    1.9213840862
H        1.0487348602   -0.2443637662    0.9345584716
H       -7.2781631388   -0.1247502215    0.4842585353
H       -6.6572150860   -1.5421442270    1.3734321673
H       -7.5488487029   -1.7654051564   -0.1477308019
H        0.4438007332   -1.2117581037    4.3205705478
H       -1.3295097640   -1.3397051986    4.1783516398
H       -0.2707747324   -2.0490639583    2.9193723334
27   

C       -4.2774143055    0.2872411008    1.3607861597
C       -3.0656867710   -1.3854433415    0.0992538722
C       -3.1206623424    0.5779936667    2.0879977824
C       -1.9035069701   -1.0758677701    0.8167739159
C       -4.2621715046   -0.6938405679    0.3547484390
C       -1.9208746668   -0.1000055378    1.8296791846
C       -0.6361061456    1.5229026034    3.8836397060
C        0.9187518545    0.5043398803    1.7818221697
C       -5.4874695608   -1.0830761863   -0.4210336051
C       -6.8421701634   -0.9075195046    0.2405136241
C       -0.3379431763   -1.2568832435    3.6023096177
O       -5.4041374846   -1.6821584646   -1.4858963691
S       -0.4049065605    0.3336987011    2.7557118065
H       -5.1837114793    0.8384044944    1.5856224859
H       -3.0304445462   -2.1510363079   -0.6700584839
H       -3.1529781030    1.3503945078    2.8509236864
H       -0.9816070793   -1.5973670270    0.5789519038
H        0.0532854898    2.3550348154    3.9331827511
H       -1.4569219683    1.4677086985    4.5853206630
H        1.6180751214    1.3083691899    1.9691660223
H        1.0797864747   -0.1597186847    0.9443331622
H       -7.1604089861    0.1352893042    0.1639938347
H       -6.7891968395   -1.1988024877    1.2929048147
H       -7.5817690364   -1.5399291805   -0.2590681186
H        0.5016997097   -1.2408200950    4.2999897992
H       -1.2675589183   -1.4120905655    4.1528452598
H       -0.1904550731   -2.0555107217    2.8743230780
27   

C       -4.2957218391    0.1876848564    1.4128361191
C       -3.0580998122   -1.4288913767    0.1066182327
C       -3.1345642543    0.5044307075    2.1218238015
C       -1.8924096885   -1.0927320317    0.8061227609
C       -4.2734160238   -0.7826666104    0.3939489345
C       -1.9199282634   -0.1317741933    1.8321282444
C       -0.6483101444    1.5054405458    3.8815398894
C        0.8957570439    0.5659041728    1.7355520734
C       -5.4960897906   -1.1869897160   -0.3779003455
C       -6.8562215643   -0.7616630620    0.1442899676
C       -0.2656769321   -1.2606828679    3.5569429007
O       -5.4233813057   -1.9227472735   -1.3544505241
S       -0.4004659927    0.3381383312    2.7343846285
H       -5.2086977383    0.7137855320    1.6672291055
H       -3.0098102047   -2.1823359521   -0.6738882164
H       -3.1758272974    1.2659418728    2.8952066671
H       -0.9595935154   -1.5817209649    0.5431391306
H        0.0120925679    2.3610342752    3.9261619280
H       -1.4507061207    1.4128058247    4.6003941666
H        1.5698752420    1.3923991209    1.9174525679
H        1.0629228979   -0.0834971407    0.8878410604
H       -6.9978469106    0.3104201458   -0.0151282167
H       -6.9407111187   -0.9917542923    1.2096317107
H       -7.6420462285   -1.3028172077   -0.3907642402
H        0.5867766280   -1.2270077239    4.2382534459
H       -1.1787206433   -1.4532406280    4.1232172707
H       -0.1074303970   -2.0442592575    2.8149862593
27   

C       -4.3246068622    0.0952668979    1.5118335158
C       -3.0507774419   -1.4597438246    0.1661995464
C       -3.1614319686    0.4571026041    2.1952657782
C       -1.8842649843   -1.0782317699    0.8407005537
C       -4.2860644653   -0.8679406952    0.4859563786
C       -1.9281147907   -0.1245333541    1.8727441028
C       -0.6795114616    1.5607282602    3.8961545354
C        0.8525120924    0.6890839292    1.7131642729
C       -5.5055591273   -1.3108677551   -0.2699716271
C       -6.8432210348   -0.6783921397    0.0675495393
C       -0.1909462477   -1.1880253736    3.5561831902
O       -5.4432448189   -2.1690450346   -1.1418390342
S       -0.4091153087    0.4056441639    2.7416979061
H       -5.2516082670    0.5796199268    1.7960066835
H       -2.9875981634   -2.2058777503   -0.6202342907
H       -3.2168801920    1.2112243336    2.9749658959
H       -0.9380269858   -1.5258136112    0.5530876380
H       -0.0563791432    2.4444721412    3.9256197497
H       -1.4590309724    1.4327787380    4.6345113402
H        1.4937616073    1.5444766025    1.8796822528
H        1.0288358398    0.0466216231    0.8620442510
H       -6.8022094232    0.4000792745   -0.1063822609
H       -7.0992553497   -0.8764650276    1.1116177402
H       -7.6236791851   -1.1045473411   -0.5696191270
H        0.6746679273   -1.1212900061    4.2181761659
H       -1.0824077594   -1.4186584408    4.1422987624
H       -0.0182031091   -1.9629741715    2.8084086075
