33

C      2.00253   -4.79931    6.55070
C      0.18764   -1.92244    2.44055
C      1.28572   -5.81543    7.18772
C      1.03876   -1.48336    1.41704
C      1.97257   -4.71493    5.15938
C      0.28537   -3.23394    2.89389
C      0.55688   -6.73157    6.42541
C      1.94792   -2.36476    0.84056
C      1.25592   -5.64431    4.38547
C      1.20186   -4.14355    2.33239
C      0.53005   -6.67696    5.02378
C      2.02902   -3.69929    1.27643
C      1.31563   -5.51661    2.89768
C      2.80038   -5.85030    0.26167
C      1.50497   -6.48697    0.75032
C     -0.27923   -7.70489    4.26688
N      1.47744   -6.58690    2.20213
N      2.98866   -4.53851    0.67897
O      3.62607   -6.41516   -0.43939
H      2.57486   -4.07908    7.12922
H     -0.53359   -1.24302    2.88535
H      1.28776   -5.89247    8.27213
H      0.98699   -0.45737    1.06280
H      2.52290   -3.92327    4.65874
H     -0.34563   -3.57243    3.71006
H     -0.00901   -7.51191    6.92923
H      2.59838   -2.03051    0.03553
H      0.66401   -5.88977    0.36438
H      1.45709   -7.48668    0.31902
H     -0.85100   -7.25322    3.45154
H      0.37145   -8.45488    3.80985
H     -0.97690   -8.20940    4.94167
H      3.77370   -4.08723    0.21973
