25

C      2.15666   -1.15025   -0.23620
C      2.29661   -2.33443    0.49722
C      1.92285    0.05939    0.42732
C      2.20393   -2.30946    1.88946
C      1.80873    0.08256    1.81886
C      0.87778    0.66264    8.04724
C      2.21807    0.60655    7.83733
C      1.94273   -1.10388    2.55604
C      1.17191    0.07410    6.02303
C      1.92086   -1.11603    4.05318
C     -0.32983    0.02547    4.14101
N      0.21163    0.31781    6.87092
N      1.02317   -0.22079    4.67318
O      2.67060   -1.83513    4.69723
O      2.42207    0.23854    6.52134
H      2.23739   -1.16877   -1.31996
H      2.48594   -3.27330   -0.01621
H      1.83325    0.98304   -0.13824
H      2.33729   -3.21434    2.47467
H      1.63757    1.02324    2.33487
H      0.34047    0.91665    8.95070
H      3.10310    0.75975    8.43550
H     -0.54622    1.09667    4.14476
H     -1.06954   -0.48183    4.76516
H     -0.39090   -0.35571    3.12490
