31

C      1.76224   -1.43955    0.04808
C     -0.25956   -5.59501    5.04135
C      0.54852   -1.12292    0.66263
C      2.92132   -1.54843    0.82656
C     -0.86204   -4.38374    4.68907
C      1.09424   -5.59547    5.39875
C      0.49237   -0.91887    2.04595
C      2.85877   -1.34096    2.20490
C     -0.13652   -3.18996    4.68981
C      1.82761   -4.40971    5.40303
C      1.64453   -1.02264    2.83359
C      1.22296   -3.18751    5.05137
C      0.64620    0.11678    4.97607
C      2.11646    0.46352    4.91304
C      1.62151   -0.84531    4.33196
N      1.97495   -2.00425    5.12252
H      1.80723   -1.60104   -1.02588
H     -0.82979   -6.51962    5.03462
H     -0.35780   -1.04147    0.06773
H      3.87138   -1.79129    0.35706
H     -1.91160   -4.36297    4.40504
H      1.58533   -6.52606    5.67297
H     -0.45949   -0.68240    2.51327
H      3.76548   -1.42056    2.80174
H     -0.62523   -2.26332    4.41416
H      2.87988   -4.42377    5.68266
H      0.24034   -0.17890    5.93740
H     -0.03096    0.67320    4.33641
H      2.42813    1.23025    4.21086
H      2.68844    0.41058    5.83467
H      2.97405   -2.17901    5.13473
