24

C      1.96470   -1.06316   -0.27904
C      0.83226   -0.58279    0.36762
C      1.88182   -1.09998    2.51047
C      3.08283   -1.53414    0.42890
C      0.81358   -0.60125    1.76553
C      3.01713   -1.55811    1.83163
C      4.34470   -1.93157   -0.38167
N     -0.31037    1.73586    2.53651
N      3.59497   -2.29505    4.38186
O      4.16113   -2.09379   -1.61264
O      5.38437   -1.99490    0.31822
O     -1.82505   -0.14234    1.83570
O     -0.54613   -0.38646    4.02911
O      4.65572   -3.62277    2.50694
O      5.43449   -1.20680    3.08591
S     -0.60135    0.05020    2.62564
S      4.39988   -2.21822    2.84221
H      2.04217   -1.09164   -1.36189
H     -0.02399   -0.20691   -0.18471
H      1.82663   -1.14451    3.59000
H     -1.21408    2.20278    2.62519
H      0.29940    2.01245    3.30671
H      3.45678   -3.28016    4.60248
H      4.23849   -1.87916    5.05340
