24

C      0.06057    0.82981    0.09449
C      0.00458   -0.34355   -0.59910
C      0.17918    2.09727   -0.59773
C      0.19208   -1.18974    1.65840
C     -0.24501   -1.57605    0.23155
C     -1.73026   -1.97595    0.13719
C     -1.11810    4.94170   -0.89297
C      0.24971    4.47415   -0.41767
O      0.27664    2.17918   -1.83348
O      0.07736   -0.47682   -1.92911
O      0.16956    3.16764    0.21489
S     -0.10527    0.62680    1.86348
H     -0.36913   -1.72699    2.42553
H      1.26027   -1.37526    1.79992
H      0.37321   -2.40074   -0.13920
H     -2.36642   -1.18632    0.54895
H     -1.91221   -2.89655    0.70102
H     -2.01755   -2.14721   -0.90380
H     -1.49701    4.29187   -1.68533
H     -1.83347    4.95011   -0.06519
H     -1.03900    5.95941   -1.29069
H      0.64427    5.12187    0.36740
H      0.96436    4.42398   -1.24143
H      0.17581    0.44237   -2.29402
