35

C      3.63543   -1.12064    3.64756
C      2.65686   -2.07248    3.95247
C      4.01178   -0.92558    2.31454
C      0.97150    2.50532    0.40636
C      1.24650    1.88394    1.63127
C      2.06345   -2.82140    2.93137
C      3.41666   -1.67926    1.30064
C      0.25850    1.82073   -0.58167
C      0.82370    0.57174    1.86693
C      2.43460   -2.63730    1.59335
C     -0.17533    0.50659   -0.36230
C      0.13087   -0.10549    0.86857
C     -1.08897   -1.43054   -1.17361
C     -0.37350   -2.20167   -0.07564
C      1.81194   -3.46073    0.48387
C      1.01219   -2.65810   -0.56007
N     -0.95701   -0.15846   -1.32525
N     -1.79910   -2.18288   -2.09100
O     -0.31004   -1.39280    1.10464
H      4.09638   -0.53500    4.43887
H      2.35194   -2.22918    4.98428
H      4.76358   -0.18179    2.06347
H      1.30537    3.52336    0.22430
H      1.79998    2.41361    2.40203
H      1.29230   -3.54806    3.17671
H      3.71635   -1.51394    0.26777
H      0.01516    2.29006   -1.53102
H      1.04511    0.06011    2.79782
H     -0.95873   -3.07774    0.22478
H      2.61153   -3.99006   -0.04860
H      1.16844   -4.23514    0.91751
H      1.58222   -1.78096   -0.88303
H      0.85378   -3.27459   -1.45240
H     -2.36589   -1.62588   -2.72329
H     -2.26914   -3.00614   -1.73393
