19   

C        1.7384437196   -1.2550387906   -0.1122800770
C        0.7594331147   -0.5075755488    0.5303296342
C        2.7566144589   -1.8501356242    0.6347320088
C        0.8073015884   -0.3576052971    1.9153936262
C        2.8280617124   -1.7222434619    2.0404848157
C        1.8262642399   -0.9506732063    2.6864757229
C        3.9374114945   -2.3782579180    2.7466363214
C        1.8205870901   -0.7129804335    4.1780482104
N        4.0768589310   -2.6267487959    4.0910985907
N        5.0301618460   -2.8515689983    2.1031537344
N        5.2770318660   -3.2535526368    4.2090874504
N        5.8283611936   -3.3841352216    3.0607116711
H        1.7153456367   -1.3773084775   -1.1884331416
H       -0.0339042972   -0.0418601417   -0.0418560641
H        3.5107571845   -2.4302232240    0.1154787689
H        0.0396939508    0.2333961050    2.3998317673
H        1.6340958579   -1.6524106374    4.7071418684
H        2.7825610770   -0.3020114902    4.4992568388
H        1.0396991835   -0.0015189679    4.4605783059
19   

C        1.7129402235   -1.2940465553   -0.1207873337
C        0.7450767673   -0.5273924723    0.5192871045
C        2.7303769770   -1.8896740579    0.6275685137
C        0.8041286850   -0.3562372645    1.9025889352
C        2.8048605819   -1.7452875433    2.0284876693
C        1.8220583411   -0.9504426122    2.6730367226
C        3.9194818294   -2.3869559898    2.7407815494
C        1.8515873623   -0.6869238798    4.1595310843
N        3.9559108096   -2.8265493451    4.0413779202
N        5.1183903895   -2.6198858990    2.1598426355
N        5.2106036160   -3.3260431096    4.1994024711
N        5.8819078176   -3.2075919022    3.1139408958
H        1.6822592946   -1.4285896746   -1.1952693034
H       -0.0467354630   -0.0606953724   -0.0541985478
H        3.4837855398   -2.4827194571    0.1216203406
H        0.0492490288    0.2523808390    2.3852100446
H        1.5998731088   -1.6006505504    4.7062995712
H        2.8469622876   -0.3497434201    4.4649122076
H        1.1321382116    0.0891047097    4.4351952422
19   

C        1.7018380492   -1.3117113563   -0.1259336147
C        0.7477931291   -0.5265529267    0.5158730879
C        2.7149322536   -1.9180803040    0.6206137119
C        0.8167260360   -0.3454983658    1.8986286905
C        2.7904109276   -1.7678567995    2.0176848014
C        1.8298562457   -0.9513841609    2.6651502867
C        3.9059646115   -2.4037067755    2.7384499902
C        1.8880623157   -0.6855897605    4.1499702846
N        3.8595526875   -3.0319507021    3.9574640876
N        5.1751592333   -2.4030973753    2.2762030273
N        5.1448384907   -3.4126156649    4.1880021551
N        5.9038022770   -3.0508640329    3.2191059989
H        1.6642381936   -1.4499995813   -1.1997031895
H       -0.0398418852   -0.0514206003   -0.0564308970
H        3.4660223807   -2.5214481901    0.1234463815
H        0.0758350749    0.2788192055    2.3828574127
H        1.6063211741   -1.5875507473    4.7015668660
H        2.9012652095   -0.3931007091    4.4430205844
H        1.2053171689    0.1210830728    4.4309545738
19   

C        2.0351264022   -0.7401622259   -0.1290688616
C        0.8618385732   -0.3414510818    0.5086934875
C        3.0419915792   -1.3722467163    0.6053535392
C        0.7042680891   -0.5687541873    1.8782663097
C        2.8906584990   -1.6312339081    1.9777833104
C        1.7084956498   -1.2058518280    2.6301188222
C        4.0016554027   -2.2597225452    2.7199436545
C        1.5218261305   -1.3995224777    4.1151243922
N        3.9284501938   -3.3778752485    3.5095917811
N        5.2484913278   -1.7466455279    2.7605333720
N        5.1890832164   -3.5175089002    4.0018057295
N        5.9503443872   -2.5783812654    3.5703913634
H        2.1711295818   -0.5573876930   -1.1881201631
H        0.0778431525    0.1508116469   -0.0540441745
H        3.9642038017   -1.6737359297    0.1220357580
H       -0.2069286479   -0.2420376411    2.3641819483
H        1.4039603242   -2.4637383882    4.3403820145
H        2.3936049551   -1.0199575832    4.6574396257
H        0.6355652946   -0.8675137745    4.4718892363
19   

C        2.0221897958   -0.7555393254   -0.1439799840
C        0.8571566401   -0.3442205814    0.5031955962
C        3.0361796662   -1.3821459958    0.5861175160
C        0.7126179729   -0.5554246721    1.8775287436
C        2.8974648847   -1.6165616502    1.9627401206
C        1.7241320840   -1.1859711032    2.6243539574
C        4.0014419009   -2.2501989891    2.7188404210
C        1.5569957427   -1.3824704657    4.1109949690
N        3.9850452642   -3.5049545466    3.2674435168
N        5.1577401764   -1.6256035124    3.0155042546
N        5.1913613130   -3.6052124522    3.8890248612
N        5.8677245718   -2.5234289305    3.7438211285
H        2.1449986573   -0.5878130135   -1.2071156960
H        0.0681225427    0.1430944686   -0.0567995750
H        3.9509631354   -1.6972982233    0.0979212041
H       -0.1932798294   -0.2234056145    2.3697001010
H        1.5105324175   -2.4509625370    4.3426956606
H        2.4068699723   -0.9457236984    4.6450099897
H        0.6400934749   -0.9066697818    4.4696799518
19   

C        2.0190235656   -0.7821086970   -0.1503747307
C        0.8616004131   -0.3513086156    0.4987480098
C        3.0362864341   -1.3995794552    0.5832681672
C        0.7250747269   -0.5389365007    1.8776323891
C        2.9114550334   -1.5936233301    1.9668733952
C        1.7406401997   -1.1585090924    2.6278390218
C        4.0006464738   -2.2497473894    2.7296371082
C        1.5774294859   -1.3534898412    4.1148718864
N        4.1205632170   -3.5935134753    2.9593414626
N        5.0230584174   -1.5822189202    3.2959847654
N        5.2605922410   -3.6960030701    3.6954743109
N        5.7815365775   -2.5381362473    3.8890091810
H        2.1316802098   -0.6397121410   -1.2183143898
H        0.0699053683    0.1279790017   -0.0644092447
H        3.9412335144   -1.7389559825    0.0931156937
H       -0.1783066461   -0.1998976657    2.3696316129
H        1.6283280956   -2.4191859142    4.3592033046
H        2.3792070355   -0.8344591010    4.6494399326
H        0.6167329205   -0.9613986119    4.4599610900
19   

C        2.0163687484   -0.8108452405   -0.1449803895
C        0.8673339927   -0.3530618581    0.4994137979
C        3.0318671777   -1.4191485080    0.5983513750
C        0.7356720367   -0.5102969275    1.8821652256
C        2.9214957066   -1.5676318704    1.9894390053
C        1.7504629420   -1.1195608555    2.6421232130
C        3.9981609506   -2.2489430616    2.7439291312
C        1.5785560167   -1.2985945344    4.1302992159
N        4.3251740661   -3.5743967272    2.6467096610
N        4.8598830434   -1.6116876866    3.5592653039
N        5.3993497876   -3.7055176988    3.4719338357
N        5.7085503610   -2.5752178352    3.9973205867
H        2.1227874093   -0.6998270867   -1.2172774342
H        0.0763278565    0.1186840403   -0.0710287285
H        3.9260858873   -1.7881817483    0.1095590005
H       -0.1651286676   -0.1578929902    2.3694873783
H        1.6973156460   -2.3535335953    4.3968859408
H        2.3342955437   -0.7155577141    4.6655910500
H        0.5879863332   -0.9674663933    4.4542093140
19   

C        2.0175036899   -0.8413144582   -0.1367638624
C        0.8753772651   -0.3520820315    0.4944401596
C        3.0183237668   -1.4551021445    0.6210962506
C        0.7357349853   -0.4860043044    1.8781321304
C        2.9062723215   -1.5765858363    2.0161713816
C        1.7362815276   -1.0996010505    2.6540212287
C        3.9688229597   -2.2750414679    2.7657164490
C        1.5354321360   -1.2620469408    4.1409854678
N        4.4900074431   -3.5007398636    2.4457681364
N        4.6573535591   -1.7310448502    3.7899223344
N        5.4855421715   -3.6818604475    3.3555746215
N        5.5829188515   -2.6625627761    4.1300365632
H        2.1299073955   -0.7518187350   -1.2104702193
H        0.0948965372    0.1237865157   -0.0869734698
H        3.9051152268   -1.8501845283    0.1386833204
H       -0.1623687884   -0.1125188667    2.3546380851
H        1.7153053644   -2.3009516724    4.4348370943
H        2.2334913255   -0.6175741790    4.6837930712
H        0.5158034220   -0.9934315157    4.4308168782
19   

C        2.0025677515   -0.8660322429   -0.1323680465
C        0.8738717563   -0.3555404971    0.5031938347
C        3.0008098539   -1.4860395582    0.6228229979
C        0.7458303964   -0.4750261090    1.8884450166
C        2.9027742339   -1.5971760763    2.0219132325
C        1.7436361935   -1.0946941457    2.6641849726
C        3.9744814546   -2.2924191061    2.7533898635
C        1.5306950293   -1.2423355329    4.1517190579
N        4.6643464372   -3.3832831614    2.2900869621
N        4.5039126765   -1.8806023832    3.9255309946
N        5.5928229988   -3.6243998923    3.2547987975
N        5.5011134634   -2.7587243411    4.1975990562
H        2.1076781381   -0.7875075269   -1.2076832379
H        0.0947167622    0.1255772270   -0.0756799154
H        3.8774659672   -1.8923368965    0.1310522336
H       -0.1438382035   -0.0850994546    2.3676372798
H        1.7380372864   -2.2704789247    4.4645323696
H        2.1985308351   -0.5655238930    4.6931161190
H        0.4990751497   -1.0043557453    4.4254474151
19   

C        1.9927517163   -0.8803982791   -0.1334592792
C        0.8745722759   -0.3541697174    0.5043401445
C        2.9882851737   -1.5052196613    0.6201942046
C        0.7558310042   -0.4622185912    1.8902884011
C        2.8998683855   -1.6129742853    2.0227449082
C        1.7500598044   -1.0878931681    2.6673893615
C        3.9847233421   -2.2993167802    2.7395063757
C        1.5247650315   -1.2126882677    4.1559629286
N        4.8246133708   -3.2320779265    2.1830930745
N        4.3631397251   -2.0580804643    4.0145574999
N        5.6888260697   -3.5494232130    3.1842011858
N        5.4233122656   -2.8728019303    4.2407254434
H        2.0933485969   -0.8090283008   -1.2097190671
H        0.0969165876    0.1314981363   -0.0727601794
H        3.8569645194   -1.9160078364    0.1182227397
H       -0.1268630421   -0.0574022101    2.3700609368
H        1.6891403869   -2.2450831083    4.4797212475
H        2.2115220862   -0.5532789061    4.6951980446
H        0.5012954789   -0.9350561985    4.4227863445
19   

C        1.9751733379   -0.9092826990   -0.1273221993
C        0.8636833998   -0.3743254376    0.5117934439
C        2.9736790874   -1.5284522875    0.6260391731
C        0.7566933452   -0.4661709432    1.8989346887
C        2.8958956685   -1.6285105727    2.0320643820
C        1.7533187832   -1.0870386955    2.6784127058
C        3.9953571539   -2.2994207211    2.7397823891
C        1.5301770335   -1.1696093649    4.1709822084
N        4.9751457804   -3.0481014367    2.1329047485
N        4.2340750000   -2.2555283306    4.0704810047
N        5.7819506350   -3.4490420998    3.1512457522
N        5.3548327753   -2.9920355821    4.2697952952
H        2.0695443979   -0.8480728072   -1.2047832496
H        0.0833277221    0.1078988946   -0.0645639792
H        3.8359962127   -1.9406272717    0.1146510334
H       -0.1205831342   -0.0495333374    2.3785226786
H        1.6103583931   -2.2070776424    4.5096083258
H        2.2692237005   -0.5571737278    4.6963498362
H        0.5349265091   -0.8061562753    4.4413102970
19   

C        1.9490654527   -0.9392298698   -0.1206441972
C        0.8401433897   -0.4037150959    0.5211323172
C        2.9563331354   -1.5452180931    0.6313393244
C        0.7468496695   -0.4782176132    1.9099013617
C        2.8896277786   -1.6356760368    2.0395685775
C        1.7523652063   -1.0857150915    2.6891941157
C        4.0006950205   -2.2926900077    2.7421174567
C        1.5537867371   -1.1137793733    4.1875480533
N        5.1070252446   -2.8291813439    2.1268050472
N        4.1128394592   -2.4722962588    4.0784265762
N        5.8625817411   -3.3241668532    3.1428340553
N        5.2891787688   -3.1184640774    4.2699204883
H        2.0350260970   -0.8885765867   -1.1993624276
H        0.0529187833    0.0687631071   -0.0539591386
H        3.8146632108   -1.9578497186    0.1138339497
H       -0.1260297823   -0.0545750857    2.3913616377
H        1.5254242633   -2.1473227090    4.5457395142
H        2.3655820639   -0.5758854150    4.6865221839
H        0.6119173169   -0.6355365693    4.4700802349
19   

C        1.9397303518   -0.9759604160   -0.1335137181
C        0.8298287922   -0.4379774723    0.5058234594
C        2.9529097491   -1.5676175311    0.6223612075
C        0.7431601524   -0.4916911384    1.8963803748
C        2.8879203361   -1.6436113369    2.0305377487
C        1.7547527206   -1.0844898192    2.6784273693
C        4.0035603975   -2.2841938382    2.7410324163
C        1.5877681386   -1.0618290577    4.1804203370
N        5.2141952536   -2.6012241574    2.1730056868
N        4.0017280163   -2.6898776219    4.0314136977
N        5.9202578298   -3.1903434269    3.1745667860
N        5.2211470932   -3.2418034290    4.2474329175
H        2.0217103804   -0.9380179052   -1.2130572286
H        0.0384628483    0.0236040217   -0.0724204167
H        3.8127871563   -1.9844118250    0.1106087859
H       -0.1263945394   -0.0605662934    2.3772250772
H        1.4549218376   -2.0795950552    4.5596087163
H        2.4648982216   -0.6090696953    4.6527420601
H        0.7120142075   -0.4748996047    4.4707099077
19   

C        1.9090937366   -1.0029443015   -0.1125708785
C        0.8082664608   -0.4509549342    0.5335653451
C        2.9278889728   -1.5921137053    0.6387087997
C        0.7366050932   -0.4855518038    1.9265009777
C        2.8717613131   -1.6541421603    2.0457227526
C        1.7538471665   -1.0763453883    2.7011190506
C        3.9940132613   -2.2776808864    2.7619233294
C        1.6297395195   -1.0282876503    4.2059242834
N        5.2713307878   -2.3887825351    2.2706930852
N        3.9187161950   -2.8978611801    3.9607069138
N        5.9471543187   -3.0694272160    3.2349128279
N        5.1677577533   -3.3633148832    4.2099143003
H        1.9798401472   -0.9761898724   -1.1932313354
H        0.0136645127    0.0090316500   -0.0414894398
H        3.7852134658   -2.0187837532    0.1305042079
H       -0.1220243999   -0.0408607900    2.4145680883
H        1.4306179601   -2.0304252932    4.5974550335
H        2.5533186478   -0.6454605081    4.6510368200
H        0.8108668907   -0.3711988060    4.5116080668
19   

C        1.9022703712   -1.0184941425   -0.1187443324
C        0.8082562792   -0.4504610979    0.5285272365
C        2.9191428184   -1.6121539586    0.6327589854
C        0.7410886490   -0.4719023890    1.9230180816
C        2.8608232298   -1.6648955661    2.0374840594
C        1.7560233698   -1.0682433815    2.6948031379
C        3.9825596008   -2.2750299477    2.7698264874
C        1.6579617715   -1.0183153237    4.2007196766
N        5.3014603439   -2.1881046090    2.4044544371
N        3.8556228128   -3.0999417212    3.8315526837
N        5.9514441291   -2.9592102869    3.3175775154
N        5.1188721554   -3.4851815119    4.1402902803
H        1.9693781591   -0.9988342087   -1.1997745014
H        0.0161725052    0.0129750091   -0.0472182134
H        3.7768514413   -2.0482442408    0.1331558499
H       -0.1094289630   -0.0143690625    2.4133872375
H        1.4310294417   -2.0142364878    4.5929374172
H        2.6036211303   -0.6745689442    4.6314029261
H        0.8688356128   -0.3316807250    4.5194907784
19   

C        1.8963136675   -1.0356687011   -0.1187589958
C        0.8151803816   -0.4424122537    0.5304093144
C        2.9077516566   -1.6406376540    0.6320699413
C        0.7545553535   -0.4496883863    1.9262254416
C        2.8512657270   -1.6791376454    2.0352382057
C        1.7644236525   -1.0571433436    2.6948285437
C        3.9675159454   -2.2887608050    2.7842942818
C        1.6866146394   -1.0128080916    4.2014027229
N        5.2953453791   -2.0127069064    2.5919234322
N        3.8267416922   -3.2988994247    3.6668802680
N        5.9342255554   -2.8689996140    3.4346799396
N        5.0888841239   -3.6106695155    4.0540014385
H        1.9575518212   -1.0256189876   -1.2002570328
H        0.0280680831    0.0295056515   -0.0452560192
H        3.7592600917   -2.0941863356    0.1376633731
H       -0.0849045905    0.0256809300    2.4186400072
H        1.4991704902   -2.0166368994    4.5944238935
H        2.6291023637   -0.6429701390    4.6172968230
H        0.8807185433   -0.3524006428    4.5333582865
19   

C        1.8704634283   -1.0546375810   -0.1293044769
C        0.8092894040   -0.4414255999    0.5362564479
C        2.8870069100   -1.6701112680    0.6066598116
C        0.7716095709   -0.4408988449    1.9336252612
C        2.8533038840   -1.6931356259    2.0094025463
C        1.7874170653   -1.0575900166    2.6861989474
C        3.9635459484   -2.3212377786    2.7613959464
C        1.7382428271   -1.0266843491    4.1938129528
N        5.2507601437   -1.8596258288    2.8180547540
N        3.8569347220   -3.4949659592    3.4128803299
N        5.8984937070   -2.7939923748    3.5660133191
N        5.0965203779   -3.7367946578    3.9083248753
H        1.9111292887   -1.0527014566   -1.2118077132
H        0.0186069607    0.0379157296   -0.0282725490
H        3.7225663769   -2.1421880867    0.1029589821
H       -0.0537095397    0.0458553694    2.4386320640
H        1.6372730084   -2.0439800647    4.5843586076
H        2.6605341556   -0.5900820895    4.5898248475
H        0.8918981420   -0.4312905503    4.5473646302
19   

C        1.8482178885   -1.0720759381   -0.1390923889
C        0.8045628921   -0.4377976237    0.5354729184
C        2.8740286457   -1.6827018781    0.5883561833
C        0.7898098430   -0.4160937631    1.9334916412
C        2.8707783298   -1.6678791825    1.9909939390
C        1.8153108104   -1.0264682970    2.6776962954
C        3.9666648118   -2.3211818288    2.7465600194
C        1.7844162318   -0.9938501443    4.1856395722
N        5.1318352572   -1.7238200383    3.1445448128
N        3.9413501959   -3.6094885617    3.1355332295
N        5.7986987630   -2.7156630555    3.7953890930
N        5.1141467262   -3.8023299836    3.7898292619
H        1.8659194354   -1.0930275540   -1.2220100328
H        0.0067260098    0.0370230867   -0.0227801986
H        3.6909462082   -2.1796559141    0.0784171371
H       -0.0260809224    0.0795018014    2.4451711880
H        1.7628742858   -2.0144282444    4.5805587126
H        2.6792123629   -0.4914281200    4.5663059318
H        0.9023005087   -0.4598444449    4.5496036504
19   

C        1.8273447611   -1.0902503263   -0.1360749241
C        0.7957977509   -0.4386891740    0.5397305764
C        2.8591983924   -1.6925879586    0.5894061923
C        0.7965108824   -0.3966458464    1.9370608451
C        2.8822410815   -1.6431000673    1.9916497692
C        1.8291141332   -0.9971011061    2.6798095479
C        3.9681802901   -2.3195676378    2.7367815640
C        1.7974208021   -0.9600202798    4.1878764742
N        4.9622022329   -1.7022724841    3.4484651283
N        4.0708075598   -3.6576991052    2.8548130915
N        5.6715624073   -2.7342689042    3.9808308090
N        5.1592135113   -3.8609274342    3.6388353824
H        1.8292875117   -1.1342105943   -1.2184497945
H       -0.0074508369    0.0290386932   -0.0167472928
H        3.6613417238   -2.2111843868    0.0774408462
H       -0.0149407342    0.1049320622    2.4499798751
H        1.8703221186   -1.9756057756    4.5897208759
H        2.6416413016   -0.3740555952    4.5639829059
H        0.8695629503   -0.5090887358    4.5504949225
19   

C        1.8159234983   -1.1052536955   -0.1279670568
C        0.7917522650   -0.4378174870    0.5412710105
C        2.8469680452   -1.7016534486    0.6027873382
C        0.7987705595   -0.3770232645    1.9371161892
C        2.8835714748   -1.6292174262    2.0052937515
C        1.8315385312   -0.9706701225    2.6858215172
C        3.9687841710   -2.3149232206    2.7343806191
C        1.7861106844   -0.9205053455    4.1934921191
N        4.8011260380   -1.7586549153    3.6708864954
N        4.2317044670   -3.6320631096    2.6076443522
N        5.5817019452   -2.7962916093    4.0770307422
N        5.2546170527   -3.8758820673    3.4646284142
H        1.8125733857   -1.1677889678   -1.2094327785
H       -0.0118178503    0.0252237475   -0.0186543545
H        3.6408027808   -2.2352621615    0.0928356736
H       -0.0100894782    0.1333505374    2.4454581039
H        1.9299227695   -1.9228607652    4.6091815402
H        2.5799932947   -0.2675543493    4.5684916791
H        0.8239605076   -0.5372138278    4.5444002080
19   

C        1.8115567144   -1.1220774922   -0.1177539849
C        0.7970145872   -0.4336674975    0.5421013556
C        2.8336626300   -1.7232061067    0.6206992806
C        0.8056131963   -0.3571111775    1.9362439348
C        2.8746337864   -1.6393703907    2.0247449221
C        1.8294205531   -0.9554532675    2.6944537541
C        3.9599924878   -2.3277345958    2.7434725150
C        1.7671410220   -0.8845829586    4.2010434402
N        4.6510304639   -1.8762639861    3.8395738233
N        4.3910727088   -3.5643991358    2.4127319845
N        5.5133450681   -2.8866472169    4.1321190531
N        5.3644274065   -3.8599813281    3.3098433784
H        1.8087877629   -1.1969913701   -1.1984476007
H       -0.0001428503    0.0335395141   -0.0235025906
H        3.6196998912   -2.2692933950    0.1114848392
H        0.0028129702    0.1701034229    2.4369685979
H        1.9144261914   -1.8792289642    4.6334724332
H        2.5484337262   -0.2163669909    4.5755275796
H        0.7970372597   -0.5071017683    4.5360390991
19   

C        1.8008095105   -1.1430771334   -0.1135875319
C        0.7982298195   -0.4343625557    0.5396754929
C        2.8149749588   -1.7510637124    0.6292620072
C        0.8127661841   -0.3431528451    1.9317025025
C        2.8618877488   -1.6617753798    2.0359765664
C        1.8281938520   -0.9488275322    2.6964931493
C        3.9514987207   -2.3480409588    2.7456013570
C        1.7580308559   -0.8482787469    4.2014573485
N        4.5098242509   -2.0275507437    3.9587133410
N        4.5575342931   -3.4537549456    2.2563246309
N        5.4619565039   -2.9772234695    4.1594672832
N        5.4904274649   -3.8003396029    3.1773288116
H        1.7967756119   -1.2272997050   -1.1936082279
H        0.0070263688    0.0389904633   -0.0291774466
H        3.5911260869   -2.3052242187    0.1136992489
H        0.0192393371    0.2032775761    2.4265877761
H        1.8565551975   -1.8405688567    4.6524333935
H        2.5627118319   -0.2056485130    4.5712137797
H        0.8027906986   -0.4238221694    4.5226546671
19   

C        1.7851199207   -1.1874507128   -0.1204026260
C        0.7952322718   -0.4554616466    0.5233216140
C        2.7929156964   -1.7972315046    0.6288530087
C        0.8181681731   -0.3410835099    1.9123846470
C        2.8473026993   -1.6936119805    2.0374209285
C        1.8268858853   -0.9486340175    2.6856255524
C        3.9413727971   -2.3720542649    2.7462663155
C        1.7602343270   -0.7999954941    4.1871970186
N        4.3618222125   -2.2061866371    4.0441029767
N        4.7209919248   -3.3071917447    2.1543707971
N        5.4021266903   -3.0688900483    4.1883453511
N        5.6104826771   -3.7051991590    3.0967466548
H        1.7779122299   -1.2872330069   -1.1990962069
H        0.0091436097    0.0204381404   -0.0504861686
H        3.5567937433   -2.3632160105    0.1082723892
H        0.0355277339    0.2281287504    2.3988588246
H        1.7762101675   -1.7839568132    4.6657657953
H        2.6102809475   -0.2106961997    4.5441236083
H        0.8410171532   -0.2923577604    4.4923725552
19   

C        1.7690019728   -1.2234258989   -0.1251564282
C        0.7811884656   -0.4865484280    0.5147002930
C        2.7815466885   -1.8227623520    0.6257991700
C        0.8131257331   -0.3543156487    1.9014723652
C        2.8426805552   -1.7077621576    2.0346118930
C        1.8264778898   -0.9514359991    2.6772974018
C        3.9456562309   -2.3727523235    2.7424947441
C        1.7803580100   -0.7543787734    4.1742560578
N        4.2170642807   -2.4062428987    4.0896771006
N        4.8977458642   -3.0862967864    2.0958680308
N        5.3456891346   -3.1542511266    4.2048852118
N        5.7398683631   -3.5478279952    3.0524418077
H        1.7571036632   -1.3348707655   -1.2026727897
H       -0.0083634341   -0.0180441379   -0.0604439615
H        3.5406506570   -2.3925026914    0.1026114604
H        0.0347202519    0.2239464011    2.3840471073
H        1.6934641329   -1.7212423708    4.6791663073
H        2.6876076856   -0.2468292334    4.5157220288
H        0.9217192306   -0.1431235814    4.4655775839
