68

C     -5.10500    2.05557   -0.36091
C     -3.78058    1.96807   -0.78669
C     -4.76198    0.16957    1.10016
C     -3.43331    0.08130    0.67211
C     -5.61343    1.15125    0.58431
C     -2.93015    0.97344   -0.27956
C     -8.05660    0.60444   -0.03446
C     -1.38191    0.17332   -2.18750
C     -9.11315    1.71434   -0.15444
C     -0.53996    1.20243   -2.95449
C     -7.06087    1.19659    1.00274
C     -1.51574    0.83121   -0.78107
C     -8.87447    4.53453    2.38658
C      1.38570    3.16844   -3.58226
C    -11.41243    3.85207   -0.52161
C    -11.68835    2.96295    1.82628
C    -11.41073    5.41143    1.38939
C      1.05040    3.68561    0.30909
C      2.98064    2.87841   -1.05840
C      2.07044    5.20852   -1.37047
C     -9.40082    3.88574    1.09629
C      0.72102    3.23252   -2.19716
C    -10.96099    3.99962    0.94928
C      1.70269    3.73716   -1.08697
N     -8.93990    2.48088    1.09052
N      0.17326    1.90089   -1.87084
O     -7.47031    2.55748    1.14864
O     -0.93905    2.13034   -0.94020
H     -5.75265    2.83835   -0.74513
H     -3.38857    2.68295   -1.50432
H     -5.13348   -0.52621    1.84968
H     -2.78203   -0.68250    1.09208
H     -8.48556   -0.33080    0.33372
H     -7.57421    0.40618   -0.99375
H     -2.35384    0.01362   -2.65866
H     -0.87223   -0.79033   -2.11171
H     -8.92878    2.33792   -1.04240
H    -10.12521    1.31199   -0.20255
H      0.17588    0.74265   -3.63820
H     -1.19106    1.88828   -3.51901
H     -7.18849    0.68287    1.96428
H     -0.91923    0.26283   -0.05550
H     -9.36783    4.11379    3.26831
H     -9.03762    5.61358    2.37566
H     -7.80427    4.35596    2.48328
H      2.10702    2.34879   -3.64274
H      1.91521    4.09784   -3.79630
H      0.64596    3.03084   -4.37433
H    -10.89343    4.57279   -1.16379
H    -11.24449    2.85676   -0.93278
H    -12.48647    4.05361   -0.60031
H    -11.38984    3.04743    2.87540
H    -11.48161    1.93733    1.51090
H    -12.77132    3.12250    1.77096
H    -11.27953    5.57458    2.46157
H    -12.47443    5.54314    1.16463
H    -10.86062    6.19434    0.85450
H      0.10237    4.23158    0.33231
H      0.84605    2.66028    0.62101
H      1.72650    4.14111    1.04220
H      3.57882    2.99541   -1.96792
H      2.72830    1.81953   -0.94563
H      3.61264    3.17028   -0.21231
H      2.64213    5.33388   -2.29486
H      2.68657    5.60300   -0.55544
H      1.17319    5.83524   -1.43850
H     -8.94802    4.41366    0.23779
H     -0.12098    3.94266   -2.25080
