74

C      6.22528   -5.08379    5.12186
C      5.52381   -4.33184    6.07141
C      7.38526   -4.55311    4.54840
C     -9.58478   -2.05985    4.80800
C    -10.04289   -3.35847    4.57367
C      5.97288   -3.06156    6.43395
C      7.83678   -3.28390    4.92052
C      7.08467    2.41989    6.05410
C      7.62899    1.37130    8.14815
C      4.34678    0.49186    6.26665
C      5.22779   -0.64954    4.34470
C      7.42898    3.66475    6.57329
C      7.96929    2.61438    8.68822
C      3.07578    0.47447    5.70390
C      3.95939   -0.66631    3.75828
C     -8.22376   -1.85925    5.03760
C     -9.11208   -4.40116    4.57765
C      7.19370    1.24460    6.82091
C      5.44845   -0.09006    5.61020
C      7.13067   -2.51014    5.85714
C      7.87577    3.76513    7.89756
C      2.87066   -0.11163    4.44472
C     -7.37108   -2.97212    5.01678
C      6.79814   -0.07070    6.24234
C      7.61215   -1.15983    6.26869
C      9.32094   -1.93344    8.00177
C     -5.88901   -2.81918    5.23757
C      9.05651   -1.11247    6.72795
C     -1.02133   -1.36024    3.47439
C     -0.18119   -0.58981    2.44975
C     -2.52429   -1.25994    3.18631
C      1.31518   -0.69169    2.70627
C     -3.34107   -2.02333    4.22939
N     -7.80168   -4.22305    4.79060
O     -5.52352   -0.50004    3.94640
O     -5.35896   -2.65934    2.59359
O      8.19591    5.01740    8.36611
O      1.58570   -0.08324    3.97233
S     -5.11492   -1.91537    3.83957
H      5.87540   -6.07265    4.83658
H      4.62560   -4.73682    6.53121
H      7.93955   -5.12732    3.80994
H    -10.27274   -1.21852    4.80943
H    -11.09363   -3.56400    4.39024
H      5.42099   -2.47991    7.16624
H      8.73502   -2.88270    4.45814
H      6.72487    2.35190    5.03109
H      7.68787    0.48735    8.77591
H      4.49139    0.95804    7.23750
H      6.06122   -1.08521    3.80315
H      7.35378    4.56674    5.97294
H      8.29760    2.68580    9.72433
H      2.22616    0.91320    6.21953
H      3.83805   -1.10848    2.77605
H     -7.81751   -0.86650    5.20286
H     -9.43092   -5.42689    4.39972
H      9.05214   -2.98421    7.85744
H      8.73367   -1.55494    8.84510
H     10.37961   -1.88772    8.27897
H     -5.42242   -3.80428    5.28761
H     -5.65502   -2.23036    6.12840
H      9.37429   -0.07874    6.87461
H      9.68722   -1.51721    5.92568
H     -0.71615   -2.41549    3.47215
H     -0.80562   -0.97358    4.47628
H     -0.46894    0.46804    2.44970
H     -0.37709   -0.97338    1.44053
H     -2.83592   -0.21048    3.18489
H     -2.74351   -1.66459    2.19267
H      1.63366   -1.74338    2.72448
H      1.87876   -0.17509    1.91794
H     -3.09167   -3.08850    4.24003
H     -3.21034   -1.60492    5.23198
H      8.48759    4.94446    9.28860
