58

C     -4.56488    2.80074    6.44267
C     -4.54019    1.89979    5.37280
C     -3.87435    2.49166    7.61951
C      4.34539   -4.40069    7.10025
C     -3.82718    0.70197    5.48119
C     -3.16410    1.29172    7.72176
C      4.26627   -4.83644    5.77823
C      3.18818   -4.15916    7.84860
C      1.85050   -4.83795    5.91264
C      1.35477   -6.40448    0.88570
C     -3.12966    0.38082    6.65527
C      3.01781   -5.06135    5.16252
C      1.96107   -4.38480    7.22397
C      0.02254   -6.18001    1.18915
C     -0.29127   -5.68848    2.48462
C      1.95937   -5.72338    2.96096
C     -3.16986   -4.20493    4.27514
C     -2.31785   -0.88989    6.75013
C     -0.86840   -0.68686    6.27506
C     -0.03271   -1.96444    6.36589
C     -2.12878   -6.38992    5.05452
C     -1.93045   -5.10093    4.25770
N      2.35091   -6.18205    1.75674
N      0.70995   -5.47216    3.35952
N      3.00770   -5.50963    3.84022
N     -1.55757   -5.39727    2.86920
N      0.11647   -2.38331    7.77134
O     -0.64221   -4.76172    7.44800
O      0.68769   -4.07258    9.53319
O     -3.18118   -7.13031    4.41808
S      0.43354   -4.00359    8.09403
Br    -1.34994   -6.52443   -0.09986
H     -5.12116    3.73115    6.36237
H     -5.07950    2.12809    4.45673
H     -3.89394    3.18240    8.45894
H      5.32156   -4.24904    7.55243
H     -3.81713    0.00325    4.64643
H     -2.63595    1.05419    8.64337
H      5.18054   -5.01114    5.21493
H      3.23353   -3.83412    8.88275
H      0.88568   -5.02980    5.47428
H      1.63803   -6.77949   -0.09557
H     -4.02856   -4.71029    3.82367
H     -2.97958   -3.27666    3.72781
H     -3.43113   -3.95700    5.30786
H     -2.78031   -1.67412    6.14001
H     -2.30342   -1.26025    7.77935
H     -0.39618    0.11309    6.85947
H     -0.86394   -0.34794    5.23234
H      0.94460   -1.82960    5.88369
H     -0.55031   -2.77165    5.84399
H     -1.19181   -6.96156    5.05459
H     -2.37997   -6.13767    6.09099
H     -1.09427   -4.56997    4.70933
H      3.90539   -5.71357    3.41769
H     -2.29590   -5.77296    2.28469
H      0.74412   -1.79565    8.31835
H     -3.30708   -7.95951    4.90234
