42

C      0.09420   -2.62306   -3.51111
C      0.23840   -2.20111   -2.18511
C     -0.55726   -3.83302   -3.79457
C     -0.26133   -2.95871   -1.11635
C     -0.08594   -7.34023    2.08460
C     -1.96600   -8.63406    1.30702
C     -1.05839   -4.59366   -2.74496
C     -1.41831   -7.39710    1.65954
C     -0.91602   -4.15640   -1.41894
C      0.68993   -8.49630    2.17103
C      0.14593   -9.75172    1.82098
C     -1.18544   -9.78904    1.38131
C     -1.51484   -5.01689    0.82994
C     -1.74210   -5.94181   -2.77137
C      3.21843  -10.33034    1.83395
C     -2.26932   -6.10051   -1.32814
C      3.04282   -8.81645    1.83218
C      2.04451  -11.07525    1.21186
C     -2.24943   -6.12870    1.57858
N     -1.52313   -5.08954   -0.53999
O     -0.91856   -4.13314    1.44782
O      1.96350   -8.37237    2.67259
O      0.83082  -10.92601    1.97011
Cl    -1.88920  -11.32593    0.92062
H      0.48759   -2.01512   -4.32127
H      0.74633   -1.26414   -1.97159
H     -0.66748   -4.17237   -4.82204
H     -0.14981   -2.63660   -0.09035
H      0.36842   -6.39419    2.36420
H     -2.99620   -8.71087    0.97209
H     -2.55064   -5.99999   -3.50492
H     -1.02124   -6.73177   -3.01244
H      4.12669  -10.57503    1.26680
H      3.36521  -10.67788    2.86200
H     -3.34286   -5.88327   -1.27699
H     -2.09596   -7.10053   -0.93171
H      3.93070   -8.32952    2.24223
H      2.88430   -8.44071    0.81200
H      1.86931  -10.74404    0.17947
H      2.23277  -12.15122    1.20060
H     -3.22019   -6.34653    1.12468
H     -2.43070   -5.73402    2.58145
