25

C     -2.25024    1.35796   -5.31697
C     -3.81863    0.02471   -6.63463
C     -1.66146    0.19017   -4.81152
C     -3.22052   -1.12367   -6.11716
C     -2.16094   -1.05821   -5.22202
C     -3.31303    1.25195   -6.21774
C      3.33641    1.05907   -2.53768
C      2.88825    2.40851   -1.96634
C      1.08435    1.08635   -2.57614
C     -0.08043    1.39785   -3.49740
O      2.20656    0.66278   -3.32035
O      1.45667    2.28674   -1.89557
O     -0.62510    0.15318   -3.93777
F     -3.67574   -2.33620   -6.49059
F     -1.61145   -2.18875   -4.74584
Br    -4.09565    2.86075   -6.90353
H     -1.89185    2.33454   -5.01995
H     -4.64296   -0.06211   -7.33276
H      4.20360    1.11929   -3.19717
H      3.52825    0.32609   -1.74203
H      3.28209    2.60460   -0.96499
H      3.14581    3.24085   -2.63084
H      0.80199    0.31994   -1.83738
H      0.28308    1.99014   -4.34429
H     -0.83073    1.96941   -2.93924
