23

C     -2.70631   -3.66608   -0.71598
C     -3.81082   -4.40360   -0.28944
C     -2.77599   -4.66781    1.88822
C     -1.62091   -3.38656    0.12724
C     -1.70135   -3.89802    1.43625
C     -3.82391   -4.89880    1.01079
C     -0.90578   -1.39499   -2.37876
C     -0.58090   -1.05157   -0.13035
C     -0.43673   -2.57390   -0.39631
N     -0.34335   -2.53982   -1.84381
N     -0.64168   -3.63780    2.42795
O      0.04130   -2.61373    2.28547
O     -1.18457   -1.17779   -3.53583
O     -0.50697   -4.44246    3.35176
O     -1.11327   -0.50739   -1.35603
F     -4.88229   -5.62293    1.43231
H     -2.69405   -3.29472   -1.73490
H     -4.64939   -4.59836   -0.95073
H     -2.78944   -5.06267    2.89709
H     -1.27146   -0.81986    0.67799
H      0.39261   -0.59666    0.06843
H      0.49103   -2.94059    0.04025
H     -0.31379   -3.37140   -2.41867
