42

C     -3.77079   -0.21280   -1.87429
C     -2.59628   -0.21412   -1.11429
C     -4.59235   -1.35000   -1.89709
C     -2.20661   -1.33629   -0.36955
C     -3.74135   -6.74732    2.77407
C     -2.97444   -4.70160    3.79060
C     -4.21793   -2.46970   -1.16411
C     -2.88779   -5.64282    2.75663
C     -3.03254   -2.46338   -0.41271
C     -4.68103   -6.92387    3.79401
C     -4.80253   -5.96209    4.81966
C     -3.92205   -4.86615    4.79737
C     -1.85512   -4.04415    1.09477
C     -4.94072   -3.78376   -0.97271
C     -7.07455   -8.06472    5.57538
C     -3.88412   -4.67118   -0.27855
C     -5.81834   -8.68031    4.95998
C     -7.01734   -6.53903    5.49409
C     -1.86266   -5.46794    1.64949
N     -2.86382   -3.71950    0.22398
O     -0.99729   -3.23565    1.45427
O     -5.47581   -8.04596    3.71153
O     -5.70993   -6.04532    5.84352
Cl    -4.04152   -3.66479    6.06538
H     -4.04837    0.66932   -2.44485
H     -1.96605    0.67133   -1.09748
H     -5.51170   -1.35457   -2.47830
H     -1.30147   -1.33970    0.22171
H     -3.68672   -7.51273    2.00448
H     -2.31880   -3.83672    3.80536
H     -5.81798   -3.64684   -0.32969
H     -5.28584   -4.22607   -1.91110
H     -7.97271   -8.41128    5.05183
H     -7.14990   -8.39413    6.61777
H     -4.30419   -5.25228    0.54193
H     -3.41914   -5.35941   -0.99465
H     -4.96979   -8.60299    5.64684
H     -5.97082   -9.73500    4.71931
H     -7.27636   -6.19066    4.48932
H     -7.70365   -6.07556    6.20636
H     -0.85488   -5.63367    2.03860
H     -2.04054   -6.20379    0.85999
