37

C      0.31701   -2.76160    2.28464
C      1.28710   -1.89312    2.80351
C      0.64131   -3.68641    1.28418
C      3.46533   -7.74878   -3.91815
C      4.11435   -8.56416   -4.85559
C      2.60654   -1.93108    2.33123
C      1.53533   -9.24747   -3.84095
C      1.95576   -3.72601    0.81245
C      2.19227   -8.06776   -3.40675
C      3.45263   -9.71305   -5.25724
C      2.19493  -10.04265   -4.75591
C      2.90362   -2.85390    1.34145
C      2.59092   -4.58816   -0.22983
C      1.56458   -7.17417   -2.40742
C      2.88411  -11.71888   -6.07160
C      0.07417   -7.23432   -2.14584
N      3.85466   -4.41609   -0.48524
N      2.35630   -6.35277   -1.79645
N      1.81711   -5.50753   -0.86991
O      4.85381   -2.03417   -0.31591
O      5.43530   -3.74582    1.45291
O      3.85025  -10.65779   -6.17420
O      1.75507  -11.21364   -5.33933
S      4.47367   -3.18337    0.50529
H     -0.70021   -2.71707    2.66301
H      1.01334   -1.18337    3.57903
H     -0.13100   -4.34797    0.89897
H      3.94979   -6.84500   -3.56643
H      5.09088   -8.30572   -5.25221
H      3.36731   -1.26362    2.72470
H      0.56491   -9.54967   -3.46382
H      2.56397  -12.01376   -7.07302
H      3.32846  -12.55959   -5.52238
H     -0.14476   -7.67055   -1.16270
H     -0.36378   -6.22940   -2.17669
H     -0.45044   -7.82366   -2.89567
H      0.84493   -5.58766   -0.59064
