42

C     -2.68880   -0.24748   -1.93680
C     -1.56088   -0.65129   -1.21445
C     -3.80325   -1.09509   -2.02794
C     -1.50752   -1.89821   -0.57561
C     -4.52215   -6.89360    2.15896
C     -3.19623   -5.24726    3.31600
C     -3.76383   -2.33425   -1.40020
C     -3.38740   -6.08195    2.20727
C     -2.62332   -2.73311   -0.68609
C     -5.46927   -6.88066    3.18722
C     -5.30575   -6.01578    4.29036
C     -4.14765   -5.21961    4.33217
C     -1.94441   -4.70899    0.65261
C     -4.83377   -3.39724   -1.29476
C     -8.08413   -7.43638    4.93587
C     -4.07390   -4.60728   -0.70823
C     -7.06009   -8.33103    4.23820
C     -7.59060   -5.98991    4.97687
C     -2.35931   -6.11325    1.08959
N     -2.82067   -4.03510   -0.15929
O     -0.88859   -4.21431    1.05174
O     -6.55323   -7.71718    3.03625
O     -6.19530   -5.92349    5.32904
Cl    -3.91263   -4.14729    5.69608
H     -2.70322    0.72316   -2.42503
H     -0.70215    0.01137   -1.14410
H     -4.68771   -0.78557   -2.58018
H     -0.63890   -2.21213   -0.01361
H     -4.69241   -7.57386    1.32869
H     -2.31976   -4.61045    3.38234
H     -5.63017   -3.07089   -0.61574
H     -5.29765   -3.63850   -2.25492
H     -9.04572   -7.46519    4.41109
H     -8.24769   -7.81825    5.94987
H     -4.63948   -5.11366    0.07342
H     -3.82970   -5.33401   -1.49239
H     -6.22312   -8.55920    4.90543
H     -7.51047   -9.27314    3.91705
H     -7.74134   -5.49741    4.01110
H     -8.11228   -5.41183    5.74292
H     -1.44040   -6.59349    1.43522
H     -2.74423   -6.69646    0.24808
