38

C     -4.18387    1.98550   -9.38675
C     -3.43220    1.54506   -8.29560
C     -3.86503    3.17451  -10.04716
C     -2.01427    3.51244   -8.50027
C     -0.77039    1.20028   -4.78349
C     -2.35704    2.32104   -7.84961
C     -2.77338    3.91947   -9.59453
C      0.27506    1.63587   -5.65702
C     -1.92883    1.40379   -5.52829
C     -0.57887    0.68554   -3.43665
C     -0.10472   -0.61571   -0.93520
C     -2.48344   -1.04382   -1.01445
C      0.14758   -2.05001   -1.41123
C     -2.18010   -2.47276   -1.47016
C      1.74919    1.64333   -5.39004
N     -0.20082    2.06307   -6.82267
N     -1.56819    0.26794   -2.72064
N     -1.55944    1.90952   -6.74889
N     -1.40669   -0.13070   -1.42202
O     -0.90811   -2.91058   -0.98006
Cl    -2.34981    5.41181  -10.41724
Cl    -3.57130    1.19832   -5.06185
H     -5.01971    1.38711   -9.73775
H     -3.66902    0.60565   -7.81070
H     -4.44356    3.51442  -10.89990
H     -1.16708    4.09236   -8.15416
H      0.45572    0.69235   -3.08451
H     -0.14985   -0.60186    0.15831
H      0.69856    0.06204   -1.23146
H     -3.41641   -0.68294   -1.45171
H     -2.56230   -1.01115    0.07760
H      0.23245   -2.08009   -2.50772
H      1.06815   -2.45148   -0.97846
H     -2.91726   -3.17866   -1.07778
H     -2.19445   -2.51901   -2.56975
H      2.12412    0.63306   -5.19188
H      2.27671    2.04258   -6.25891
H      1.99398    2.26403   -4.52088
