30

C     -4.42724    2.50352    1.08826
C     -4.19775    3.75759    1.67912
C     -3.36296    1.63909    0.83509
C     -2.91078    4.17816    2.02921
C      0.16013    2.23201    1.53768
C     -2.06504    2.03949    1.18071
C     -0.78051    1.38174    1.04551
C     -1.84137    3.31189    1.77656
C      0.33225    4.44226    2.56223
C     -0.48127   -0.10819   -1.10200
C      0.75453   -1.00954   -0.86421
C     -0.53780    0.03636    0.45065
C     -0.36622    5.69487    3.04005
N     -0.44748    3.41916    1.99736
N      0.86924   -0.44373    0.51016
O      1.54340    4.30445    2.65583
H     -5.44057    2.21037    0.82753
H     -5.03593    4.42218    1.87024
H     -3.53449    0.66974    0.37426
H     -2.78314    5.15256    2.47972
H      1.22953    2.11591    1.61256
H     -0.22968    0.83800   -1.58506
H     -1.34796   -0.55655   -1.59170
H      0.49725   -2.07800   -0.88814
H      1.63469   -0.83958   -1.49247
H     -1.25796   -0.68777    0.86496
H     -1.09530    5.46729    3.82274
H     -0.88806    6.19446    2.21902
H      0.39620    6.36220    3.44108
H      1.05324   -1.12287    1.24611
