27

C      1.91540   -0.41150    0.03616
C      0.42848    3.51442    5.90152
C      0.66674   -0.39022    0.66814
C     -0.45457    2.45330    6.12451
C      3.08195   -0.54830    0.78455
C      1.64771    3.30034    5.25560
C      0.60901   -0.50667    2.05466
C     -0.10560    1.17015    5.69910
C      3.03505   -0.66023    2.18545
C      2.00340    2.01335    4.83284
C      1.77706   -0.63109    2.81711
C      1.11704    0.94861    5.06195
O      0.28663   -1.51607    4.79858
O      2.76108   -1.16001    5.27661
O      4.17040   -0.80321    2.91671
O      3.17146    1.75046    4.18066
S      1.53022   -0.75034    4.60214
H      1.98310   -0.32788   -1.04531
H      0.16812    4.51841    6.22585
H     -0.24657   -0.29493    0.08906
H     -1.40363    2.62179    6.62424
H      4.04931   -0.57421    0.28478
H      2.32754    4.13179    5.07655
H     -0.34807   -0.51536    2.56667
H     -0.76743    0.32373    5.85312
H      4.92637   -0.84268    2.30927
H      3.70759    2.55800    4.13810
