29   

C        1.8102362080    4.7043252767   -3.2795817120
C        1.9117255465    5.2515408317   -1.9987765071
C        1.2048765502    3.4582088183   -3.4540616145
C        1.4218091310    4.5473492974   -0.8928424842
C        0.7156332886    2.7546855039   -2.3477763419
C        0.8485549361    3.2749993255   -1.0405837177
C        0.2759675730    2.6257793909    0.1917838203
C       -0.6920030861   -1.5254939369    0.0010320527
C        0.2357827880   -0.8703607542   -1.0306886836
C       -1.6706693495   -0.4822759161    0.5541855787
C        0.9700734284    0.3187682599   -0.4031132093
C       -0.9163100755    0.7128932876    1.1438038325
N       -0.0019222566    1.2700659541    0.1449486554
O       -0.0765729111    3.3065582489    1.1491728389
H        2.1852397911    5.2527664046   -4.1365111785
H        2.3624923005    6.2277734399   -1.8597305369
H        1.0990389170    3.0431514839   -4.4500862174
H        1.4917132260    4.9971125048    0.0928070221
H        0.2036343183    1.8156863485   -2.5206698877
H       -0.0946692052   -1.9377131931    0.8215032042
H       -1.2456422581   -2.3490020781   -0.4612078001
H       -0.3558210681   -0.5254206890   -1.8848157822
H        0.9619516385   -1.6033787577   -1.3955019642
H       -2.3056959099   -0.9331801420    1.3231866230
H       -2.3189410928   -0.1307379389   -0.2550454606
H        1.6398880968    0.7705812498   -1.1384526832
H        1.6063131128   -0.0440749101    0.4113830407
H       -1.6463597465    1.4615373336    1.4707519449
H       -0.3458755756    0.3967782169    2.0238025853
29   

C        1.8843351363    4.6441685892   -3.2829646169
C        2.0481250820    5.1557106157   -1.9930304452
C        1.1412002049    3.4772848339   -3.4774712399
C        1.4788441244    4.4951837114   -0.8980696840
C        0.5731827906    2.8177897046   -2.3818545902
C        0.7577989427    3.3052174171   -1.0702888146
C        0.1226482582    2.6820841782    0.1431417382
C       -0.6063468200   -1.5052182598    0.0016664046
C        0.2650582989   -0.8021433964   -1.0477113205
C       -1.6085156648   -0.5080150902    0.5962042488
C        0.9715478751    0.4078066193   -0.4283753251
C       -0.8843662784    0.7071981658    1.1829036169
N       -0.0206725747    1.3103150615    0.1654569471
O       -0.3264800321    3.3853738730    1.0412106705
H        2.3212015783    5.1591555482   -4.1313129603
H        2.6093858043    6.0704883047   -1.8390173326
H        0.9936626874    3.0899567068   -4.4793487265
H        1.5958010599    4.9118556034    0.0975292613
H       -0.0317497341    1.9349404260   -2.5549907062
H        0.0298399998   -1.9037330952    0.7993573119
H       -1.1408467053   -2.3440202857   -0.4555943226
H       -0.3641966335   -0.4704696808   -1.8798788944
H        1.0078448155   -1.5019681244   -1.4429987621
H       -2.2047444254   -0.9934660995    1.3751508976
H       -2.2918138867   -0.1707999633   -0.1900654578
H        1.5977847826    0.8919790998   -1.1809113280
H        1.6489926289    0.0619638286    0.3597799155
H       -1.6345312035    1.4196896750    1.5430743958
H       -0.2771408467    0.4016249746    2.0415829056
29   

C        1.9229851540    4.5689473124   -3.2649582025
C        2.1277613637    5.0347637061   -1.9629268220
C        1.0738501030    3.4816382516   -3.4888092225
C        1.4897237337    4.4093908162   -0.8852766184
C        0.4374207615    2.8572452903   -2.4103798224
C        0.6528598945    3.3047590175   -1.0913114293
C       -0.0369390100    2.6934606582    0.0982890449
C       -0.5411753295   -1.5007215634    0.0046537662
C        0.2863638184   -0.7551830291   -1.0513858083
C       -1.5555895402   -0.5430314877    0.6427049358
C        0.9735160200    0.4638977888   -0.4283884543
C       -0.8502871581    0.6798771215    1.2368726201
N       -0.0318494650    1.3230502510    0.2065025505
O       -0.5950344726    3.4038308213    0.9260600777
H        2.4135027149    5.0569710379   -4.0998245251
H        2.7750618425    5.8865151292   -1.7866309567
H        0.9007196496    3.1281815270   -4.4990834394
H        1.6387467516    4.7863338024    0.1216301741
H       -0.2380008699    2.0292221163   -2.5954917933
H        0.1242682812   -1.8967860488    0.7793118179
H       -1.0637160701   -2.3450517934   -0.4562714232
H       -0.3709411750   -0.4266817265   -1.8628914475
H        1.0386784920   -1.4269153459   -1.4762893928
H       -2.1198305767   -1.0600030502    1.4251540827
H       -2.2665225578   -0.2092975898   -0.1203221673
H        1.5648516541    0.9777471220   -1.1893803084
H        1.6817023813    0.1264084789    0.3359178987
H       -1.6099750583    1.3612870266    1.6347384397
H       -0.2112209742    0.3744156030    2.0719907203
29   

C        1.9587148446    4.5016317996   -3.2905589423
C        2.2185824892    4.9162746275   -1.9807529488
C        1.0101864378    3.5027685216   -3.5288065131
C        1.5329467946    4.3300876313   -0.9102712197
C        0.3267527334    2.9175478853   -2.4571789208
C        0.5885659209    3.3207272298   -1.1339230950
C       -0.1414099641    2.7241810341    0.0409898917
C       -0.4767386584   -1.4452475692    0.0337393475
C        0.3218465261   -0.6790811535   -1.0303734272
C       -1.4859216615   -0.5061509720    0.7081018200
C        1.0083863304    0.5415769608   -0.4097860731
C       -0.7784044501    0.7159744168    1.3020049971
N        0.0032020765    1.3776856913    0.2551823682
O       -0.8086921552    3.4329949842    0.7840522650
H        2.4860239616    4.9596824566   -4.1199727144
H        2.9464552274    5.6976727185   -1.7931739459
H        0.7986652417    3.1868202456   -4.5441932195
H        1.7266773456    4.6643863453    0.1038197267
H       -0.4181344773    2.1525099492   -2.6475125523
H        0.2090387810   -1.8455413154    0.7881508823
H       -1.0015332219   -2.2882399701   -0.4271204646
H       -0.3553520079   -0.3486625560   -1.8246291804
H        1.0722816188   -1.3377852783   -1.4783759334
H       -2.0266562244   -1.0393879882    1.4961620343
H       -2.2178900671   -0.1695413748   -0.0336030544
H        1.5732805612    1.0708223938   -1.1806995790
H        1.7392426461    0.2077922168    0.3344580065
H       -1.5321198127    1.3825686813    1.7343646105
H       -0.1122367855    0.4059172338    2.1137826182
29   

C        1.9928611837    4.4270142683   -3.3294991984
C        2.2945818559    4.7737466518   -2.0089009018
C        0.9622743067    3.5197085201   -3.5923400717
C        1.5668771688    4.2125830212   -0.9528467427
C        0.2373769809    2.9595463502   -2.5346323803
C        0.5360635878    3.2990662160   -1.2029874935
C       -0.2392574638    2.7103111832   -0.0512225979
C       -0.4138011038   -1.4089829467    0.0458995054
C        0.3911061378   -0.6300774646   -1.0049039343
C       -1.4336947056   -0.4820984164    0.7226651498
C        1.0620913485    0.5929583772   -0.3714238713
C       -0.7366816402    0.7400820901    1.3293359306
N        0.0382313131    1.4124189910    0.2849942795
O       -1.0442046781    3.3904677092    0.5718439417
H        2.5524686022    4.8660532614   -4.1479648870
H        3.0881723618    5.4829635130   -1.8020189177
H        0.7200687104    3.2551003758   -4.6155242407
H        1.7956854930    4.4925455888    0.0701119957
H       -0.5680036074    2.2630808247   -2.7415161943
H        0.2679324295   -1.8129939210    0.8018932103
H       -0.9304388903   -2.2503731665   -0.4270097960
H       -0.2803670425   -0.2993165892   -1.8040221852
H        1.1505548839   -1.2804286628   -1.4498792424
H       -1.9746252930   -1.0255420456    1.5035346103
H       -2.1644163661   -0.1444260951   -0.0199211226
H        1.6259538190    1.1324498762   -1.1366621005
H        1.7903018281    0.2648406937    0.3778179752
H       -1.4918784751    1.3983920689    1.7714776864
H       -0.0669916403    0.4279349531    2.1373095524
29   

C        1.9596002377    4.4105046229   -3.3030064897
C        2.3244169378    4.6305119261   -1.9713025871
C        0.8473015616    3.6164331992   -3.5968965529
C        1.5784828776    4.0548856240   -0.9359369287
C        0.1046341099    3.0420702255   -2.5592927538
C        0.4674564300    3.2511289130   -1.2180446058
C       -0.3382812286    2.6448241007   -0.0958331504
C       -0.3290545588   -1.4195511479    0.0978701645
C        0.4853589437   -0.6210982012   -0.9315074702
C       -1.3826422679   -0.5166673273    0.7561991384
C        1.1142493925    0.6164699025   -0.2818597208
C       -0.7228432113    0.7185241730    1.3777774502
N        0.0518520592    1.4085301857    0.3454717757
O       -1.2834400942    3.2495811081    0.3934345594
H        2.5333332697    4.8606241608   -4.1055201375
H        3.1814130056    5.2530075552   -1.7397142553
H        0.5552613626    3.4510865591   -4.6278979846
H        1.8582171402    4.2371949508    0.0962001722
H       -0.7648316704    2.4353452258   -2.7887060444
H        0.3432296253   -1.8133206840    0.8675149196
H       -0.8180425405   -2.2690374460   -0.3897898168
H       -0.1735679954   -0.3032206584   -1.7463813623
H        1.2687534385   -1.2542800012   -1.3593219671
H       -1.9267007337   -1.0734242062    1.5254004726
H       -2.1060670250   -0.1927728551    0.0003339166
H        1.6808399956    1.1697973278   -1.0354910677
H        1.8321204905    0.3069629792    0.4849724953
H       -1.4953987061    1.3613096472    1.8127961259
H       -0.0581134342    0.4184930511    2.1943521908
29   

C        2.0101136058    4.4465750197   -3.3385517555
C        2.4298203728    4.4872647772   -2.0057051202
C        0.8095759043    3.8119949245   -3.6694060402
C        1.6517733947    3.8891113771   -1.0073823749
C        0.0353488026    3.2150407599   -2.6682898846
C        0.4557238615    3.2344389562   -1.3281257146
C       -0.4009551480    2.6217430880   -0.2491176929
C       -0.2758001683   -1.3980060131    0.1703922330
C        0.5586297959   -0.6272022494   -0.8639379656
C       -1.3702064821   -0.4905315804    0.7505943501
C        1.1393005248    0.6527665787   -0.2513041448
C       -0.7558206631    0.7836138619    1.3381042469
N        0.0389815591    1.4471841895    0.3035105214
O       -1.4508153020    3.1525930312    0.0900199809
H        2.6087675481    4.9141813827   -4.1123404780
H        3.3543919921    4.9895218311   -1.7440392131
H        0.4727876141    3.7891739840   -4.6997673156
H        1.9751981777    3.9363795608    0.0269177860
H       -0.9048488629    2.7378632588   -2.9240948373
H        0.3761470328   -1.7434373129    0.9796719484
H       -0.7299819180   -2.2780678210   -0.2962877773
H       -0.0779507600   -0.3602367018   -1.7142400413
H        1.3689489156   -1.2612971941   -1.2366369416
H       -1.9296780744   -1.0243216059    1.5249911690
H       -2.0729844577   -0.2151985184   -0.0431246902
H        1.7139282881    1.1825623689   -1.0153831884
H        1.8396472395    0.3962983586    0.5504452858
H       -1.5529163748    1.4291954779    1.7218511681
H       -0.1124852993    0.5323676467    2.1876040931
29   

C        2.0001254660    4.4907407044   -3.3422403633
C        2.4591786751    4.3681834849   -2.0278864416
C        0.7463781204    3.9807711054   -3.6891702796
C        1.6678471408    3.7296541807   -1.0656286703
C       -0.0405548669    3.3431812984   -2.7237474406
C        0.4186642098    3.1916231022   -1.4044098548
C       -0.4615813800    2.5462008064   -0.3670669440
C       -0.2469156830   -1.3961741134    0.2671484213
C        0.5964644770   -0.6561125687   -0.7819140465
C       -1.3537830699   -0.4762043453    0.8017122744
C        1.1586669761    0.6515521675   -0.2107903460
C       -0.7521841734    0.8212574421    1.3503582578
N        0.0449420713    1.4570684856    0.3002046945
O       -1.5851621813    2.9812245194   -0.1466881654
H        2.6092171807    4.9894351038   -4.0879540561
H        3.4250198627    4.7760915276   -1.7516471386
H        0.3778588586    4.0863233453   -4.7033922635
H        2.0240718729    3.6554106436   -0.0437632182
H       -1.0224335891    2.9657555704   -2.9903381567
H        0.3963209562   -1.7096388811    1.0960826140
H       -0.6898902534   -2.2944004225   -0.1751386107
H       -0.0304837400   -0.4261084747   -1.6500808893
H        1.4165931735   -1.2966143258   -1.1206546395
H       -1.9192043385   -0.9858612598    1.5878954286
H       -2.0489652541   -0.2331812236   -0.0092238339
H        1.7334838596    1.1545809598   -0.9919519105
H        1.8535355447    0.4333018148    0.6068676346
H       -1.5543804699    1.4762969716    1.7068716249
H       -0.1137119898    0.6029969482    2.2125052078
29   

C        1.9490142706    4.5696789810   -3.2934795589
C        2.4466626372    4.2877658233   -2.0189041953
C        0.6594968153    4.1595707462   -3.6390021516
C        1.6581560684    3.5898808287   -1.0962458673
C       -0.1239786339    3.4622147828   -2.7130885346
C        0.3702120281    3.1489363833   -1.4342014986
C       -0.5136245038    2.4340216378   -0.4489236937
C       -0.2049833733   -1.4252865664    0.4073028999
C        0.6265825926   -0.7216377523   -0.6744741131
C       -1.3224976387   -0.4960192020    0.9005867393
C        1.1714838962    0.6188732807   -0.1661796189
C       -0.7354362974    0.8316177233    1.3907264509
N        0.0519997049    1.4359654201    0.3146187933
O       -1.6849185188    2.7673808483   -0.3125091835
H        2.5561525964    5.1140836498   -4.0081638427
H        3.4411511373    4.6186575375   -1.7413618478
H        0.2606387380    4.3875866102   -4.6211017964
H        2.0496380923    3.3999157520   -0.1027110384
H       -1.1321143394    3.1612439563   -2.9798881200
H        0.4429399478   -1.6932941765    1.2483710753
H       -0.6367912172   -2.3476604231    0.0054447836
H       -0.0049618410   -0.5401628013   -1.5508123971
H        1.4550272276   -1.3651592920   -0.9862793079
H       -1.8820160017   -0.9770659804    1.7086370251
H       -2.0205587883   -0.2976674518    0.0798910325
H        1.7291823310    1.0893872516   -0.9788462476
H        1.8767150820    0.4495421946    0.6542211591
H       -1.5443197799    1.4929764769    1.7197747955
H       -0.0937217743    0.6584430119    2.2606095876
29   

C        1.9555774757    4.6597166184   -3.3016279441
C        2.4826588469    4.2331849640   -2.0810278522
C        0.6370624999    4.3431510119   -3.6321054005
C        1.6946936394    3.4849490725   -1.1979881731
C       -0.1454975016    3.5952806685   -2.7459904447
C        0.3730958681    3.1380447618   -1.5192833069
C       -0.5151527882    2.3495080386   -0.5965922448
C       -0.1946118866   -1.4187365869    0.4898246889
C        0.6408055521   -0.7721466244   -0.6227682828
C       -1.3094005964   -0.4614674156    0.9312141844
C        1.1892951055    0.5902508548   -0.1813849208
C       -0.7180880271    0.8867845265    1.3577768544
N        0.0777577817    1.4404006854    0.2603439713
O       -1.7147812586    2.5954055722   -0.5376192592
H        2.5629963826    5.2421891745   -3.9853859575
H        3.5011631493    4.4908620247   -1.8131457670
H        0.2153982762    4.6802027557   -4.5724276614
H        2.1187829861    3.1933060764   -0.2436242685
H       -1.1733804590    3.3632364618   -3.0069177713
H        0.4500226943   -1.6468610479    1.3450010085
H       -0.6287186261   -2.3581777048    0.1323569836
H        0.0111118173   -0.6323370234   -1.5080648577
H        1.4676786934   -1.4326761880   -0.9015318662
H       -1.8749708257   -0.8995857519    1.7591425863
H       -2.0029844556   -0.3015585086    0.0983251719
H        1.7413897297    1.0152230545   -1.0224284079
H        1.8983744945    0.4602495439    0.6429006588
H       -1.5255488932    1.5677846363    1.6483360742
H       -0.0825992292    0.7536692284    2.2391513372
29   

C        1.9368123551    4.7708121622   -3.2766048472
C        2.4986093627    4.2055019557   -2.1312499469
C        0.5935282191    4.5380354009   -3.5702665793
C        1.7207565962    3.4034737907   -1.2870287281
C       -0.1786040845    3.7363083707   -2.7232931723
C        0.3695258337    3.1418234348   -1.5677926079
C       -0.5160935644    2.2740913200   -0.7136222254
C       -0.2132772282   -1.4029902407    0.6063047424
C        0.6345205008   -0.8210813842   -0.5309190397
C       -1.3295510439   -0.4191929752    0.9777006841
C        1.1838702318    0.5615415100   -0.1599447155
C       -0.7389588231    0.9493747595    1.3374881719
N        0.0788736466    1.4458954107    0.2283664508
O       -1.7315198272    2.4376427089   -0.7293363319
H        2.5371663041    5.3937913809   -3.9302260932
H        3.5382379199    4.3966741795   -1.8901472574
H        0.1447118828    4.9788485695   -4.4533658665
H        2.1850136036    3.0161728345   -0.3878697334
H       -1.2232534285    3.5665558613   -2.9652439124
H        0.4208636818   -1.5839508059    1.4803575892
H       -0.6460285149   -2.3598655603    0.2965635457
H        0.0134584337   -0.7279679566   -1.4284000244
H        1.4616253398   -1.4982136481   -0.7658102284
H       -1.9089978969   -0.8088785275    1.8200538005
H       -2.0105201868   -0.3043818757    0.1271160552
H        1.7365405494    0.9363044536   -1.0243986227
H        1.8908116484    0.4744429751    0.6718291316
H       -1.5488592749    1.6480836202    1.5744770460
H       -0.1204467426    0.8632961980    2.2365570881
29   

C        1.8828388794    4.6136561286   -3.5363452664
C        2.1081679350    3.2653768848   -3.2600777860
C        0.8772854746    5.2949254486   -2.8528677504
C        1.3349775302    2.6027751988   -2.2986016715
C        0.1079363794    4.6280913926   -1.8940323837
C        0.3195241318    3.2657482849   -1.5883655174
C       -0.5218261705    2.6362666259   -0.5067391755
C        0.1624055515   -1.4311932235    0.6251886839
C        1.2841543468   -0.5653500381    0.0357505070
C       -1.1952463216   -0.9621609922    0.0865049271
C        1.0244911170    0.9123117214    0.3452974537
C       -1.4060702852    0.5287204270    0.3663249672
N       -0.2880606062    1.3022504040   -0.1759871354
O       -1.5331605063    3.2017604335   -0.1041526588
H        2.4802638651    5.1274637061   -4.2812056352
H        2.8795042202    2.7268609741   -3.7990920560
H        0.6899410852    6.3422426137   -3.0617850321
H        1.5236550561    1.5470029220   -2.1548986251
H       -0.6662153743    5.1803917973   -1.3703306290
H        0.1707884480   -1.3454625627    1.7172312958
H        0.3239232378   -2.4828360173    0.3677592994
H        1.3263954305   -0.7104988207   -1.0486388761
H        2.2475179914   -0.8691213033    0.4568862050
H       -2.0021583811   -1.5414436311    0.5461656962
H       -1.2321519443   -1.1302609784   -0.9946333088
H        1.8351324860    1.5287236179   -0.0508181909
H        1.0319544712    1.0559607857    1.4312888144
H       -2.3528534611    0.8446634917   -0.0855270912
H       -1.4779367209    0.6988229201    1.4461752112
29   

C        1.9409175514    4.5890891439   -3.4637592716
C        2.0396262449    3.2067653750   -3.3002031712
C        1.0070701189    5.3053931299   -2.7153691090
C        1.2120727534    2.5446799675   -2.3850198052
C        0.1829034560    4.6388822144   -1.8026941464
C        0.2739641300    3.2451463553   -1.6088681681
C       -0.6309372608    2.5946446853   -0.5969014588
C        0.2308065000   -1.3934027054    0.6699013792
C        1.3062372091   -0.5098454612    0.0239277698
C       -1.1545447102   -0.9855699601    0.1534796553
C        1.0102862747    0.9682682694    0.2971948092
C       -1.4111537846    0.5034492680    0.4025120519
N       -0.3338071959    1.3029228027   -0.1837076268
O       -1.6922730503    3.1242060701   -0.2855763914
H        2.5794752430    5.1028937324   -4.1736840308
H        2.7528137515    2.6433190264   -3.8912965853
H        0.9164741573    6.3785693729   -2.8406643485
H        1.2932628026    1.4666572743   -2.3169656287
H       -0.5406378803    5.2102931056   -1.2294545899
H        0.2646222546   -1.2745807842    1.7583270507
H        0.4207968072   -2.4463872800    0.4386758983
H        1.3219166383   -0.6861848178   -1.0564525055
H        2.2908173336   -0.7707677785    0.4242289639
H       -1.9295582501   -1.5807429288    0.6465054980
H       -1.2111807450   -1.1821162737   -0.9220549789
H        1.7882535183    1.5919201527   -0.1494836494
H        1.0539446581    1.1472230322    1.3770082696
H       -2.3797589682    0.7716889290   -0.0336711261
H       -1.4647205299    0.6976189408    1.4792301876
29   

C        2.0195946525    4.5795075689   -3.3866786997
C        2.0105673416    3.1842690116   -3.3328959315
C        1.1411223110    5.3067548441   -2.5820275793
C        1.1307516261    2.5196872818   -2.4700307991
C        0.2643802477    4.6374728274   -1.7215575040
C        0.2538436721    3.2319678160   -1.6370129072
C       -0.7185122337    2.5597071338   -0.7068303022
C        0.2703066760   -1.3417311406    0.6915899809
C        1.3107693803   -0.4469091484    0.0050515186
C       -1.1350567655   -0.9736529548    0.2001739942
C        0.9915991925    1.0297861523    0.2585707959
C       -1.4213210576    0.5124687172    0.4339020956
N       -0.3741550529    1.3262138034   -0.1870526446
O       -1.8244303777    3.0491684181   -0.5068489099
H        2.6976332528    5.0959711247   -4.0569649505
H        2.6793860858    2.6148927705   -3.9685016681
H        1.1325182098    6.3900808801   -2.6261020161
H        1.1217265698    1.4357029717   -2.4727483944
H       -0.4229890130    5.2112441148   -1.1077472922
H        0.3262041542   -1.2030314338    1.7767288813
H        0.4783297306   -2.3942130985    0.4739565219
H        1.3044005518   -0.6419996298   -1.0721557730
H        2.3101011568   -0.6801204171    0.3854265409
H       -1.8850813693   -1.5794903819    0.7182000549
H       -1.2103942853   -1.1873085636   -0.8710096980
H        1.7452736469    1.6569548762   -0.2228812750
H        1.0631592507    1.2316202035    1.3327817166
H       -2.4064607232    0.7485526326    0.0167375805
H       -1.4560275935    0.7215118871    1.5084572327
29   

C        2.0503539890    4.5570976205   -3.2955381954
C        1.9711975402    3.1634537332   -3.3505670512
C        1.2084225646    5.2643233463   -2.4345158506
C        1.0575696644    2.4799349764   -2.5394217527
C        0.2975926351    4.5759994025   -1.6257165463
C        0.2217359212    3.1717670371   -1.6503990003
C       -0.7972227827    2.4656673114   -0.7978951973
C        0.3187727173   -1.3300675040    0.7178379632
C        1.3207277617   -0.4165349074   -0.0011647160
C       -1.1081509931   -0.9932071084    0.2670166794
C        0.9797733696    1.0548451058    0.2542121785
C       -1.4195775570    0.4870326561    0.5070896782
N       -0.4063923041    1.3168197263   -0.1485420159
O       -1.9436832376    2.8910537584   -0.7206069848
H        2.7538526689    5.0889735942   -3.9263811355
H        2.6112131314    2.6118139758   -4.0299703753
H        1.2532506120    6.3470077918   -2.3972230425
H        0.9901087033    1.4001335757   -2.6137475227
H       -0.3670562895    5.1312846021   -0.9714950191
H        0.4032607844   -1.1868036193    1.8004951464
H        0.5422814312   -2.3787112596    0.4969887876
H        1.2876268776   -0.6161902278   -1.0770449134
H        2.3351929733   -0.6276360665    0.3510375183
H       -1.8294805953   -1.6142859086    0.8072190734
H       -1.2100656311   -1.2106695486   -0.8012877849
H        1.7060943202    1.6915925989   -0.2556670368
H        1.0815215240    1.2667026216    1.3239824624
H       -2.4235175938    0.6985587460    0.1233433177
H       -1.4245888941    0.6988042827    1.5814998063
29   

C        2.0924409585    4.5271257660   -3.2554209040
C        1.9361038081    3.1471224761   -3.4111451988
C        1.2992513948    5.2150033624   -2.3335043528
C        0.9933970629    2.4570590410   -2.6399486660
C        0.3588819952    4.5204118689   -1.5645901515
C        0.2081405226    3.1291489630   -1.6930707911
C       -0.8442122980    2.4050396348   -0.8950834800
C        0.3264788238   -1.2707277429    0.7529750937
C        1.3057923285   -0.3539119324    0.0067460906
C       -1.1145761322   -0.9403129681    0.3422766074
C        0.9658368655    1.1170653307    0.2653008032
C       -1.4251775499    0.5390528318    0.5907726228
N       -0.4330125161    1.3659064177   -0.0996549513
O       -2.0158955988    2.7576303142   -0.9478675515
H        2.8181753089    5.0645562686   -3.8556344086
H        2.5387615023    2.6125308073   -4.1367814506
H        1.4043688131    6.2880946182   -2.2193750578
H        0.8646451927    1.3895982619   -2.7826884491
H       -0.2705051586    5.0599353622   -0.8642935291
H        0.4401815874   -1.1266739545    1.8327976544
H        0.5482573130   -2.3185574210    0.5264973916
H        1.2457518936   -0.5561047775   -1.0675378230
H        2.3301053207   -0.5596427142    0.3326680632
H       -1.8174190683   -1.5645940849    0.9026935275
H       -1.2458172492   -1.1587875920   -0.7227221917
H        1.6741791296    1.7522053679   -0.2717447351
H        1.0977487710    1.3378313894    1.3299004058
H       -2.4430106095    0.7463825986    0.2436523846
H       -1.3950840957    0.7532301482    1.6641546857
29   

C        2.0985875067    4.4925793763   -3.2085887459
C        1.8669999951    3.1399789211   -3.4752643368
C        1.3625878671    5.1398807353   -2.2121367661
C        0.9046654996    2.4360098669   -2.7418843754
C        0.4021050422    4.4320632523   -1.4808896979
C        0.1739387177    3.0681984938   -1.7274923633
C       -0.8892720635    2.3177926723   -0.9654632325
C        0.3445132829   -1.2124776399    0.7981989547
C        1.3012902075   -0.2750769633    0.0471341598
C       -1.1085691025   -0.8988484055    0.4147968792
C        0.9430880512    1.1896076737    0.3180351068
C       -1.4331867073    0.5750610479    0.6789008289
N       -0.4638988048    1.4114957359   -0.0312514368
O       -2.0756311379    2.5525574313   -1.1559248620
H        2.8396233823    5.0409130288   -3.7795430184
H        2.4270821076    2.6381883644   -4.2563290721
H        1.5285297713    6.1922768699   -2.0108246381
H        0.7183530911    1.3907063986   -2.9636797547
H       -0.1810781200    4.9402652085   -0.7201301325
H        0.4732676131   -1.0774990082    1.8774325616
H        0.5772212938   -2.2549072278    0.5580497636
H        1.2309547522   -0.4705645183   -1.0278824400
H        2.3326376883   -0.4678199367    0.3584442985
H       -1.7928317082   -1.5362928585    0.9832563998
H       -1.2560654059   -1.1119697953   -0.6492590270
H        1.6335928111    1.8367780769   -0.2287492698
H        1.0850220237    1.4108612828    1.3811697687
H       -2.4617905087    0.7751010025    0.3608481415
H       -1.3794831461    0.7849034549    1.7521316570
29   

C        2.0560892908    4.4479985588   -3.1562352865
C        1.7401964373    3.1435380636   -3.5482370367
C        1.4007745618    5.0237738325   -2.0637490553
C        0.7716494046    2.4161648933   -2.8466074454
C        0.4338579796    4.2933032103   -1.3638462138
C        0.1149901674    2.9794732965   -1.7455068607
C       -0.9363997098    2.1890865916   -1.0064844303
C        0.3887488880   -1.1656205487    0.8994042941
C        1.3183133804   -0.1967434364    0.1529769655
C       -1.0727735349   -0.9067165720    0.5053846022
C        0.9037848089    1.2562086951    0.4093927054
C       -1.4487889531    0.5572494374    0.7559703913
N       -0.5057580655    1.4164723704    0.0385988742
O       -2.1143026540    2.2565909525   -1.3326866108
H        2.8019532357    5.0144596534   -3.7026895164
H        2.2403868846    2.6973831306   -4.4004790700
H        1.6358733139    6.0384986853   -1.7626358083
H        0.5211962089    1.4084240786   -3.1604799574
H       -0.0820267170    4.7456261801   -0.5236081433
H        0.5045180877   -1.0223831320    1.9789796523
H        0.6606660479   -2.1998783240    0.6650818004
H        1.2663707693   -0.4007758592   -0.9216761273
H        2.3528755667   -0.3497887776    0.4753526641
H       -1.7373951173   -1.5632018068    1.0754383949
H       -1.2071874835   -1.1329766304   -0.5577620984
H        1.5752576585    1.9233255298   -0.1375981835
H        1.0244661934    1.4926861743    1.4717970318
H       -2.4833265305    0.7238399356    0.4378375180
H       -1.4027616836    0.7787443229    1.8271886005
29   

C        2.0642345935    4.4416935074   -3.1530728876
C        1.6640341455    3.2027563543   -3.6633534594
C        1.4963634250    4.9233148626   -1.9696692337
C        0.6971699379    2.4466717833   -2.9903364219
C        0.5310323504    4.1648343283   -1.2979660974
C        0.1238952267    2.9175151631   -1.8028996571
C       -0.9153942193    2.0836017344   -1.0971213059
C        0.4097581753   -1.1125224891    0.9821600772
C        1.3395102246   -0.1338161698    0.2484549306
C       -1.0447910185   -0.8955822333    0.5398698520
C        0.8827364232    1.3142238022    0.4611256587
C       -1.4587229111    0.5641134587    0.7510815259
N       -0.5168262311    1.4292583557    0.0394896749
O       -2.0505394859    1.9883377300   -1.5458326133
H        2.8088244283    5.0303122099   -3.6773990355
H        2.0976590346    2.8296834420   -4.5844127248
H        1.7991072646    5.8869511640   -1.5755173588
H        0.3808027320    1.4904956336   -3.3938338144
H        0.0859992978    4.5438253022   -0.3842529081
H        0.4886383852   -0.9488512740    2.0620982899
H        0.7129128199   -2.1437190809    0.7740315432
H        1.3276804607   -0.3592964713   -0.8232324768
H        2.3664579444   -0.2557347730    0.6063915023
H       -1.7113267395   -1.5560190953    1.1030449846
H       -1.1428447744   -1.1446215551   -0.5222463047
H        1.5558620844    1.9830359636   -0.0812584393
H        0.9632199228    1.5770678230    1.5210837463
H       -2.4884266056    0.7051115361    0.4057655841
H       -1.4441347892    0.8076366345    1.8183828311
29   

C        1.8483026279    4.4469251387   -3.1980251709
C        0.5176656689    4.5691941861   -2.7859522624
C        2.7396485057    3.6705416202   -2.4514532513
C        0.0784906654    3.9138730771   -1.6296048420
C        2.2984135075    3.0151758910   -1.2964458148
C        0.9593508783    3.1269401888   -0.8775414477
C        0.4508480617    2.4438189795    0.3644946993
C       -1.2072081324   -1.1875205591    0.0730845915
C       -0.6617503336   -0.4030071917   -1.1296311889
C       -1.2917202185   -0.2762796602    1.3059683285
C        0.6882544624    0.2432515954   -0.7955553850
C        0.0716003143    0.3589202672    1.5966691462
N        0.5268349420    1.0730192780    0.4028019599
O       -0.0220902997    3.0975970012    1.2859409503
H        2.1895054893    4.9590470366   -4.0908329953
H       -0.1740075128    5.1773575713   -3.3580408474
H        3.7741526643    3.5815478010   -2.7636593386
H       -0.9515466598    4.0207895220   -1.3051658508
H        2.9952449963    2.4221310830   -0.7139790855
H       -0.5422813567   -2.0302211625    0.2896184789
H       -2.1978067154   -1.5904340912   -0.1614799391
H       -1.3758787895    0.3817809978   -1.4012595602
H       -0.5517579554   -1.0693008129   -1.9907713020
H       -1.6278346143   -0.8500546080    2.1750755321
H       -2.0242053251    0.5173519129    1.1228404575
H        1.0323056266    0.8038386236   -1.6678169342
H        1.4353356721   -0.5332627813   -0.6007542944
H       -0.0100892010    1.0230194053    2.4638205554
H        0.7984455847   -0.4169146994    1.8581369667
29   

C        1.8780150231    4.5260926972   -3.1529836587
C        0.5717654294    4.7457601297   -2.7059624375
C        2.6995622680    3.6169952971   -2.4804816147
C        0.0856306654    4.0526737700   -1.5912064941
C        2.2118264686    2.9241469208   -1.3668223555
C        0.8909203757    3.1245347830   -0.9182011646
C        0.3294387656    2.4302020805    0.2927165648
C       -1.1417241584   -1.2576452901    0.1690677418
C       -0.6360776640   -0.4995044734   -1.0666365055
C       -1.2422083671   -0.3048061446    1.3682934595
C        0.6945571921    0.2048476668   -0.7743206172
C        0.1040215286    0.3824852452    1.6185884597
N        0.5249391812    1.0711664282    0.3972186980
O       -0.2554299562    3.0691110155    1.1595413778
H        2.2556725620    5.0671040027   -4.0134837723
H       -0.0643876116    5.4592453826   -3.2176273462
H        3.7176580560    3.4553586922   -2.8165273956
H       -0.9238298763    4.2389128528   -1.2384242534
H        2.8620946922    2.2353254831   -0.8384899797
H       -0.4472583390   -2.0699997876    0.4075001620
H       -2.1212843312   -1.7001750612   -0.0391033484
H       -1.3799003703    0.2502841851   -1.3569427218
H       -0.5135033474   -1.1919032151   -1.9052155722
H       -1.5508490332   -0.8562961113    2.2616187461
H       -2.0014730627    0.4582988883    1.1650194117
H        0.9979577821    0.7478903549   -1.6719413772
H        1.4731319205   -0.5369837517   -0.5679649154
H        0.0129958239    1.0743278459    2.4629551252
H        0.8576441685   -0.3609545314    1.8976115449
29   

C        1.9348460752    4.5984157420   -3.1096884654
C        0.6585590516    4.8993448402   -2.6268326157
C        2.6725377199    3.5658641627   -2.5252011296
C        0.1165237223    4.1620165922   -1.5677071882
C        2.1293035953    2.8289123004   -1.4669162769
C        0.8294446242    3.1020724471   -0.9897505518
C        0.2101696836    2.3915637721    0.1829030555
C       -1.0923960986   -1.3333024629    0.2663956752
C       -0.6333299588   -0.6148671090   -1.0095353482
C       -1.2028475737   -0.3304573661    1.4225615876
C        0.6785019874    0.1440138340   -0.7746979641
C        0.1259229320    0.4076579282    1.6178822293
N        0.5103726477    1.0558023403    0.3624348831
O       -0.4650778139    3.0115153951    0.9971250497
H        2.3561278471    5.1734716095   -3.9267526267
H        0.0891344071    5.7106076742   -3.0663279430
H        3.6714003975    3.3440339521   -2.8838389633
H       -0.8680514328    4.4162405613   -1.1875684431
H        2.7288695755    2.0543379688   -1.0016325811
H       -0.3682327078   -2.1120140087    0.5274682704
H       -2.0608436818   -1.8147029495    0.0957495424
H       -1.4063728778    0.0974886459   -1.3173371838
H       -0.5036389697   -1.3386811525   -1.8200812622
H       -1.4802958843   -0.8495454218    2.3450009398
H       -1.9886758759    0.3992238360    1.1982308544
H        0.9372953047    0.6604354202   -1.7014935247
H        1.4869621812   -0.5622584010   -0.5586161995
H        0.0273897729    1.1349178558    2.4311862863
H        0.9056850923   -0.2997424198    1.9178384228
29   

C        1.9936102892    4.6894838145   -3.0720812702
C        0.7548941321    5.0565681410   -2.5419538726
C        2.6397989932    3.5471944362   -2.5952282556
C        0.1566419748    4.2747674624   -1.5470713490
C        2.0408887082    2.7656322602   -1.6008308448
C        0.7680906892    3.0993706704   -1.0844893482
C        0.0934719097    2.3673443462    0.0458908221
C       -1.0420141778   -1.3818344060    0.3755719058
C       -0.6371854540   -0.7175068129   -0.9460701546
C       -1.1670420687   -0.3199839543    1.4753990329
C        0.6505269602    0.0989789203   -0.7833708673
C        0.1382768018    0.4736470283    1.6028448088
N        0.4849115239    1.0651225231    0.3085310300
O       -0.6613737527    2.9641305108    0.8066782736
H        2.4588890776    5.2987352748   -3.8389437362
H        0.2581684708    5.9537806010   -2.8938421618
H        3.6145687093    3.2753951919   -2.9844531164
H       -0.7971023034    4.5867365847   -1.1326554961
H        2.5904729109    1.9157403668   -1.2133432027
H       -0.2838755743   -2.1178892717    0.6625516212
H       -1.9951015506   -1.9065078638    0.2525482893
H       -1.4424320104   -0.0504624706   -1.2723399325
H       -0.4989295278   -1.4782360048   -1.7206315329
H       -1.4095935988   -0.7952245057    2.4306699747
H       -1.9825814973    0.3678650856    1.2261482974
H        0.8592016196    0.5790490641   -1.7420940039
H        1.4910903194   -0.5656462742   -0.5577555066
H        0.0269044201    1.2432911288    2.3744976576
H        0.9465796075   -0.1883450209    1.9295606972
29   

C        2.0448600705    4.7854581549   -3.0221433863
C        0.8520428998    5.1997418399   -2.4276524524
C        2.5955648867    3.5500524342   -2.6782414648
C        0.2017666280    4.3728056510   -1.5046811491
C        1.9456642250    2.7226713149   -1.7552866874
C        0.7089210699    3.1030459687   -1.1822024210
C       -0.0175743968    2.3397513217   -0.1006412949
C       -0.9911893166   -1.4163533964    0.4936424194
C       -0.6342192141   -0.8196737069   -0.8721057280
C       -1.1455218072   -0.2913340592    1.5237377067
C        0.6221391867    0.0546095669   -0.7840307314
C        0.1293819648    0.5585254982    1.5826083404
N        0.4487764766    1.0798805817    0.2510465536
O       -0.8529693501    2.9044308238    0.5988175518
H        2.5506103872    5.4292567788   -3.7331201668
H        0.4310250918    6.1682608524   -2.6731712774
H        3.5395352329    3.2404328049   -3.1125255199
H       -0.7141967479    4.7291246376   -1.0435187482
H        2.4442755958    1.8059498553   -1.4673695410
H       -0.1989891318   -2.1010422120    0.8137752170
H       -1.9234472310   -1.9857104033    0.4192052098
H       -1.4706465372   -0.2054766670   -1.2228255841
H       -0.4785954698   -1.6201187997   -1.6020982072
H       -1.3593342509   -0.7122904765    2.5107586684
H       -1.9903202667    0.3465776016    1.2412737431
H        0.7831941567    0.4882951844   -1.7738018970
H        1.4944806249   -0.5623755497   -0.5440551469
H       -0.0062507453    1.3732012076    2.3024597780
H        0.9646525140   -0.0490817865    1.9450689716
