29   

C        3.0827047240   -2.8217951348    0.6819690932
C        2.4556988406   -1.6310072344    0.3063265774
C        2.8673677386   -3.3459263801    1.9592433914
C        1.6121911480   -0.9684386241    1.2051979505
C        2.0308339383   -2.6772753813    2.8600174425
C       -0.1577463997   -4.4163161428    5.7023327663
C       -0.0377638940   -5.6847758283    5.1287167311
C       -1.3789160320   -3.6781677513    3.7571558265
C        1.3909331718   -1.4815425091    2.4939293585
C       -0.8177610733   -3.3955092015    5.0108856894
C       -0.5735521118   -5.9593805450    3.8638658239
C       -1.2571983928   -4.9434954011    3.1715099705
C        0.5091501165   -0.7873169015    3.4275816395
C        0.3878060838   -0.8933446838    4.8032310948
O       -2.2147203394   -1.0958466768    5.3467306874
O       -0.6358623825   -1.7070648635    7.1429248168
S       -0.9261336337   -1.7117408648    5.7003690675
Cl      -0.3814036234   -7.5553176843    3.1717081483
Cl      -1.9480786834   -5.2292153928    1.5886842225
H        3.7341602957   -3.3369847066   -0.0152444876
H        2.6234529429   -1.2193509613   -0.6826448753
H        3.3486831635   -4.2719293432    2.2528676868
H        1.1351187873   -0.0447312354    0.8964757440
H        1.8739883602   -3.0979905212    3.8466371123
H        0.2668467105   -4.2216925595    6.6844571924
H        0.4794976713   -6.4709222732    5.6661342942
H       -1.9104921768   -2.9003102005    3.2159664999
H       -0.1567196855   -0.0574455995    2.9776263700
H        1.1756025982   -0.5073936571    5.4304777336
29   

C        2.8590987332   -3.1018711495    0.8812190354
C        2.1717219777   -1.9876130662    0.3940685635
C        2.8006763307   -3.4115598372    2.2421171512
C        1.4214279339   -1.1898075716    1.2652014006
C        2.0565926757   -2.6081298248    3.1130893357
C       -0.0688329630   -4.3959113466    5.5514001568
C        0.1165864856   -5.6109789681    4.8865661142
C       -1.2398886805   -3.5466503728    3.6210022719
C        1.3501342919   -1.4909951026    2.6357523453
C       -0.7338047393   -3.3440528310    4.9132751929
C       -0.3570745283   -5.8005200376    3.5818458851
C       -1.0493381604   -4.7559334980    2.9432813817
C        0.5415697750   -0.6668667387    3.5329816962
C        0.3628656861   -0.7591282830    4.8918645275
O       -2.2272563374   -1.1359438756    5.4094051507
O       -0.6265092336   -1.8002069221    7.1584496161
S       -0.9112073709   -1.7173103522    5.7170195953
Cl      -0.0762978808   -7.3270233214    2.7733968323
Cl      -1.6611616875   -4.9340065674    1.3129147783
H        3.4361485183   -3.7235045976    0.2055815187
H        2.2177133460   -1.7422150149   -0.6610800565
H        3.3314649465   -4.2762492612    2.6239586008
H        0.8911590835   -0.3322837722    0.8658585364
H        2.0251467667   -2.8634926435    4.1657684309
H        0.3117835366   -4.2653246039    6.5616814809
H        0.6393451197   -6.4205058657    5.3821266832
H       -1.7747155118   -2.7452627686    3.1191706334
H        0.0258639178    0.1667499793    3.0667185806
H        0.9931165265   -0.1870393376    5.5544737894
29   

C        2.7120398104   -3.3434104806    1.1798160743
C        1.8927287942   -2.3836244176    0.5806433537
C        2.8500478062   -3.3665550401    2.5695492136
C        1.2056679034   -1.4550968430    1.3707150519
C        2.1641119511   -2.4362384585    3.3579078489
C        0.0649069511   -4.3430064635    5.2749173911
C        0.2755087172   -5.4850209290    4.4977017343
C       -1.2184134237   -3.3827358205    3.4726390623
C        1.3233561206   -1.4752888117    2.7703028578
C       -0.6666410895   -3.2694198728    4.7570593849
C       -0.2374062015   -5.5786680364    3.1975275061
C       -1.0001192130   -4.5158446665    2.6811914896
C        0.5569883417   -0.5315974344    3.5915111066
C        0.3097579057   -0.6052979790    4.9287815607
O       -2.2253329360   -1.1870370101    5.5220828590
O       -0.5132978946   -1.9181662652    7.1198084327
S       -0.8679583327   -1.7244330323    5.7045950168
Cl       0.0841355927   -7.0092521580    2.2423607784
Cl      -1.6615977393   -4.5743664460    1.0616113237
H        3.2391380725   -4.0672980755    0.5682627451
H        1.7849903300   -2.3621274205   -0.4980350769
H        3.4863699979   -4.1084512424    3.0382941582
H        0.5665243106   -0.7246088429    0.8872358979
H        2.2813452467   -2.4697895375    4.4351240464
H        0.4803399632   -4.2839086158    6.2779697424
H        0.8518542209   -6.3097894468    4.8994501248
H       -1.8061078138   -2.5654822999    3.0648747929
H        0.1763032198    0.3500543373    3.0856370263
H        0.7146419348    0.1417668440    5.5935949247
29   

C        2.6383017975   -3.4113027376    1.2928398335
C        1.8111833432   -2.4788595524    0.6619233284
C        2.8051257143   -3.3638752973    2.6789178945
C        1.1445324514   -1.5075816019    1.4172657441
C        2.1382461403   -2.3917041587    3.4325746144
C        0.0749195910   -4.3635832803    5.1654981187
C        0.2886699597   -5.4891595022    4.3660496979
C       -1.2221357763   -3.3755127636    3.3883755822
C        1.2882190430   -1.4597054698    2.8135285382
C       -0.6651211985   -3.2838759356    4.6721010329
C       -0.2293442043   -5.5605690726    3.0667655651
C       -1.0002498263   -4.4921688778    2.5742260336
C        0.5491190935   -0.4630326373    3.6015159598
C        0.1777163589   -0.5370859577    4.9009296734
O       -2.2813192679   -1.3051967501    5.5729190376
O       -0.4672479987   -1.9894255478    7.0582292234
S       -0.8888016516   -1.7705383933    5.6650201126
Cl       0.0950964356   -6.9714555020    2.0837318985
Cl      -1.6694894223   -4.5246765128    0.9571765988
H        3.1496861190   -4.1681472297    0.7084536366
H        1.6818938197   -2.5115673760   -0.4141061753
H        3.4489519719   -4.0832734241    3.1718088180
H        0.4999380024   -0.7976366517    0.9109439245
H        2.2775501836   -2.3676741315    4.5076450164
H        0.4922290925   -4.3230390049    6.1687082734
H        0.8704022194   -6.3184191740    4.7503764771
H       -1.8184262659   -2.5550941274    3.0003668262
H        0.3117587178    0.4650470362    3.0911459044
H        0.3754914598    0.3024126224    5.5495068011
29   

C        3.1676531864   -3.5334479172    1.9163666674
C        2.1351415874   -3.0602723051    1.1019330992
C        3.3175376259   -3.0282772930    3.2105761827
C        1.2538614632   -2.0843866017    1.5812762268
C        2.4326683062   -2.0566274617    3.6904243737
C        0.1842548202   -4.2671234580    4.4960792907
C        0.0636636155   -5.2718846868    3.5353387287
C       -1.7897341987   -3.2031814148    3.6097809208
C        1.3863902772   -1.5765131221    2.8832335265
C       -0.7305657593   -3.2087665629    4.5275260113
C       -0.9714911354   -5.2471566605    2.5941901967
C       -1.9149853496   -4.2036198325    2.6368377228
C        0.4412454624   -0.5694488990    3.3935683275
C        0.0186328725   -0.4506164304    4.6670491825
O       -1.7868694141   -1.4782332233    6.3419811684
O        0.5429030936   -2.1440248107    6.6846092270
S       -0.5093428163   -1.8299401467    5.7032337407
Cl      -1.0656340769   -6.5071856738    1.3833769572
Cl      -3.2294615465   -4.1239202871    1.4840741991
H        3.8518787404   -4.2879179524    1.5442505077
H        2.0152189044   -3.4510192889    0.0976643692
H        4.1200840092   -3.3872464400    3.8452846200
H        0.4535402339   -1.7334984817    0.9392933388
H        2.5618605241   -1.6742519248    4.6983241535
H        1.0067361554   -4.2957296289    5.2064201653
H        0.7894625174   -6.0757900888    3.5080135904
H       -2.5197430477   -2.3994830534    3.6348210059
H        0.0786710508    0.1633538658    2.6798958895
H       -0.2215767747    0.5206660159    5.0713949099
29   

C        3.1551138316   -3.5512172907    1.9809275736
C        2.1284338307   -3.0786113205    1.1587000317
C        3.3188514622   -3.0182453341    3.2623899264
C        1.2672539350   -2.0753497563    1.6175788848
C        2.4534058357   -2.0195395967    3.7218738986
C        0.1933184798   -4.2720030394    4.4212787955
C        0.0500239043   -5.2761039248    3.4631432269
C       -1.7967685762   -3.2031888488    3.5784994619
C        1.4135482124   -1.5401628956    2.9068730432
C       -0.7192058848   -3.2124675445    4.4743682311
C       -1.0055570630   -5.2492265107    2.5451855727
C       -1.9451854523   -4.2031709499    2.6081466312
C        0.4914195913   -0.4965766593    3.3940130478
C       -0.0667401049   -0.4280106557    4.6129763685
O       -1.7228734025   -1.5482883178    6.3760137094
O        0.6447351512   -2.1316454660    6.5668175837
S       -0.4748764917   -1.8412608197    5.6546260127
Cl      -1.1298620017   -6.5100419217    1.3378928076
Cl      -3.2846557965   -4.1209241131    1.4847008114
H        3.8242426402   -4.3265519785    1.6246103947
H        1.9975495231   -3.4905824520    0.1643342297
H        4.1169981873   -3.3762453505    3.9031893510
H        0.4714554874   -1.7236165955    0.9704342182
H        2.5929457962   -1.6145655131    4.7195786925
H        1.0308235867   -4.3028937043    5.1137440950
H        0.7733931795   -6.0815165505    3.4203919021
H       -2.5245559034   -2.3982668254    3.6195233354
H        0.2407956193    0.2911470122    2.6908109339
H       -0.4494869012    0.5116063161    4.9809206088
29   

C        3.1275704514   -3.5690442429    2.0181394405
C        2.1015502797   -3.0810854975    1.2039980131
C        3.3176135763   -3.0296177629    3.2934434500
C        1.2679201137   -2.0557167201    1.6647062260
C        2.4790508067   -2.0088790182    3.7547724440
C        0.2037249378   -4.2808614502    4.4061135925
C        0.0622495928   -5.2909242250    3.4539539179
C       -1.7950335467   -3.2273271445    3.5650732092
C        1.4412729649   -1.5138681593    2.9476182170
C       -0.7149038782   -3.2266637275    4.4578236871
C       -0.9970587833   -5.2748657960    2.5400537838
C       -1.9417394233   -4.2332633855    2.6006285955
C        0.5488647022   -0.4412576017    3.4356859218
C       -0.1477296657   -0.4286973687    4.5801756972
O       -1.7123647593   -1.5977884194    6.3909872915
O        0.6770393119   -2.1087502754    6.5122635265
S       -0.4769931785   -1.8506471920    5.6335721607
Cl      -1.1197401133   -6.5434326873    1.3407302242
Cl      -3.2859674172   -4.1643027278    1.4819397383
H        3.7756167408   -4.3613895780    1.6603125949
H        1.9497803019   -3.4979765417    0.2146626889
H        4.1151243432   -3.3997778812    3.9280733281
H        0.4723554667   -1.6907663774    1.0246060794
H        2.6372074679   -1.5986701081    4.7475559868
H        1.0439230429   -4.3033897520    5.0955940031
H        0.7897334827   -6.0926841312    3.4129561902
H       -2.5268609896   -2.4260528145    3.6041104992
H        0.4154374003    0.4061065329    2.7708530335
H       -0.6436402758    0.4749350318    4.9001031895
29   

C        1.9929484772   -3.0252089539    0.8731623955
C        1.0931245044   -1.9558382483    0.8726445789
C        2.7099032109   -3.3288231094    2.0337775429
C        0.9060677538   -1.1967745822    2.0332301780
C        2.5258369192   -2.5648085465    3.1917494107
C       -0.2611937019   -3.9911367408    5.4253917318
C        0.1592804585   -5.2871397026    5.1152572636
C       -0.9294645823   -3.6838767009    3.1295092063
C        1.6157291648   -1.4970033359    3.2072990660
C       -0.7924956816   -3.1691192881    4.4270577680
C        0.0484643090   -5.7902070840    3.8127785270
C       -0.5110363752   -4.9802641508    2.8086184995
C        1.4060280251   -0.7056417971    4.4417799888
C        0.2770703249   -0.6177839738    5.1553639018
O       -1.9174139874   -0.8275142267    3.6143766767
O       -2.1290483055   -1.3929740129    5.9856424935
S       -1.2765517802   -1.4461422823    4.7877277856
Cl       0.6084501425   -7.4105951028    3.4612416350
Cl      -0.6806446718   -5.5581463100    1.1647346957
H        2.1322357671   -3.6191957144   -0.0233486183
H        0.5353476489   -1.7155219990   -0.0256411184
H        3.4057897066   -4.1601619500    2.0375010721
H        0.2001174251   -0.3718894869    2.0222260769
H        3.0830061158   -2.8146420615    4.0875960290
H       -0.1654027460   -3.6185492077    6.4415559838
H        0.5815525583   -5.9155668981    5.8902915506
H       -1.3527742968   -3.0623487487    2.3454079111
H        2.2841185700   -0.2118130993    4.8453188084
H        0.2489744075   -0.0137684707    6.0492724161
29   

C        2.0058629762   -3.0173962506    0.8419776228
C        1.0975270762   -1.9562367910    0.8807568136
C        2.7353985115   -3.3488569598    1.9869345795
C        0.9136295727   -1.2340931595    2.0649771975
C        2.5541649662   -2.6220955558    3.1691703631
C       -0.2803947351   -3.9695853262    5.4410524218
C        0.1474803448   -5.2670967954    5.1477137039
C       -0.9390195781   -3.6917443089    3.1385405354
C        1.6336162947   -1.5642902764    3.2254498053
C       -0.8098095522   -3.1612049135    4.4306052140
C        0.0462049345   -5.7851262482    3.8502986717
C       -0.5121499786   -4.9893084218    2.8342846082
C        1.4256990953   -0.8172853644    4.4828525855
C        0.2570139186   -0.5880982184    5.0975551352
O       -1.9577061723   -0.8389865438    3.5931109236
O       -2.1332710179   -1.3617555424    5.9757347158
S       -1.2969987932   -1.4340557103    4.7674585603
Cl       0.6168225830   -7.4061872365    3.5195936271
Cl      -0.6688946077   -5.5856064550    1.1957546580
H        2.1428610468   -3.5826634670   -0.0732565868
H        0.5310696755   -1.6929855679   -0.0056158048
H        3.4390564006   -4.1731886421    1.9595181556
H        0.2028578077   -0.4135108336    2.0812664331
H        3.1215920941   -2.8949502534    4.0517410615
H       -0.1910994052   -3.5848024538    6.4532931833
H        0.5687408646   -5.8848176647    5.9318556098
H       -1.3611639654   -3.0812333220    2.3451779803
H        2.3212950943   -0.4531474950    4.9758503305
H        0.2095894120    0.1021394334    5.9258448083
29   

C        2.0454092114   -3.0038595890    0.8246831578
C        1.1179301209   -1.9605903429    0.8843945941
C        2.7789368913   -3.3465281927    1.9637127179
C        0.9186831434   -1.2678463524    2.0834541096
C        2.5821020090   -2.6495558561    3.1613538680
C       -0.2970641161   -3.9445768316    5.4543956949
C        0.1417079901   -5.2390983255    5.1638119567
C       -0.9605214035   -3.6784260619    3.1517636155
C        1.6419007246   -1.6102842881    3.2391436890
C       -0.8334330233   -3.1430312127    4.4421127837
C        0.0447857353   -5.7607902875    3.8674834263
C       -0.5216129632   -4.9724849747    2.8500780328
C        1.4140846867   -0.9000541771    4.5103590949
C        0.2256777130   -0.5425296280    5.0241797964
O       -2.0413547714   -0.8477046064    3.6165109563
O       -2.1177149615   -1.3336659683    6.0120098176
S       -1.3288064744   -1.4169174453    4.7729807657
Cl       0.6309743131   -7.3768866440    3.5397619371
Cl      -0.6725159989   -5.5731173094    1.2126173298
H        2.1945081538   -3.5462221863   -0.1024382267
H        0.5487024540   -1.6883354761    0.0025161101
H        3.4979487390   -4.1567684356    1.9195985850
H        0.1931073631   -0.4607458871    2.1143019177
H        3.1529860925   -2.9324957315    4.0384791771
H       -0.2103422131   -3.5563313088    6.4656017670
H        0.5687725587   -5.8513888591    5.9490721816
H       -1.3888409491   -3.0737927019    2.3571792557
H        2.2985535889   -0.6430877788    5.0842727535
H        0.1707680107    0.2408737985    5.7644157993
29   

C        2.1004474412   -3.0168034545    0.8191621139
C        1.1511957157   -1.9935838406    0.8806694544
C        2.8271045883   -3.3591257871    1.9626374151
C        0.9235549019   -1.3204558209    2.0857355695
C        2.6015162975   -2.6822808191    3.1667847631
C       -0.3174014669   -3.9387879848    5.4486794380
C        0.1291733919   -5.2253721835    5.1359242728
C       -1.0182657660   -3.6512985328    3.1595513417
C        1.6397857365   -1.6628277964    3.2464335943
C       -0.8752059227   -3.1298660347    4.4538737895
C        0.0191233817   -5.7316861367    3.8345595716
C       -0.5704268190   -4.9368802230    2.8354415719
C        1.3773105948   -0.9788394459    4.5233383938
C        0.1853130969   -0.5072739618    4.9364785143
O       -2.1748751452   -0.8581562882    3.7068385840
O       -2.0681476257   -1.3279588295    6.1051949487
S       -1.3724491886   -1.4097516955    4.8113919302
Cl       0.6184255555   -7.3367775569    3.4778670796
Cl      -0.7375870936   -5.5181422514    1.1926349023
H        2.2717647481   -3.5438062950   -0.1129603432
H        0.5872059965   -1.7220395255   -0.0047746319
H        3.5631838099   -4.1537925277    1.9167938312
H        0.1804410072   -0.5295537212    2.1172232222
H        3.1674056532   -2.9662149630    4.0467898946
H       -0.2192976551   -3.5616010232    6.4631336371
H        0.5735370927   -5.8429861283    5.9073020878
H       -1.4642936738   -3.0412594648    2.3789569034
H        2.2311490269   -0.8112291663    5.1718000194
H        0.1349993762    0.3730775727    5.5585570413
29   

C        2.2159782165   -3.0960855609    0.8618807354
C        1.2201707834   -2.1165757409    0.8824374846
C        2.9349112761   -3.3793584792    2.0261255639
C        0.9388782942   -1.4281448584    2.0673494278
C        2.6543532927   -2.6882271201    3.2104898890
C       -0.2940558290   -3.9445782509    5.4073744081
C        0.1525159055   -5.2094927909    5.0174017482
C       -1.1472602167   -3.5834607064    3.1810101245
C        1.6462131362   -1.7119363057    3.2490636939
C       -0.9270376612   -3.1086881076    4.4819886274
C       -0.0313512402   -5.6672610011    3.7066234302
C       -0.6984029811   -4.8469169702    2.7790820129
C        1.3243839411   -1.0170007913    4.5043598840
C        0.1282838398   -0.4729685229    4.8271813230
O       -2.3860009468   -0.8648592782    3.9773421931
O       -1.8971337814   -1.3594642662    6.3247350798
S       -1.4112127850   -1.4088173065    4.9367836589
Cl       0.5745729394   -7.2440751898    3.2493344824
Cl      -0.9582562473   -5.3679157065    1.1282610947
H        2.4296003419   -3.6344760492   -0.0548630583
H        0.6620693255   -1.8915290350   -0.0195618388
H        3.7080615413   -4.1392430277    2.0116441423
H        0.1606892762   -0.6715880673    2.0670685527
H        3.2155616268   -2.9270609510    4.1067183179
H       -0.1357974225   -3.6033062629    6.4270998713
H        0.6562822898   -5.8467573898    5.7343786634
H       -1.6530781402   -2.9524065484    2.4556180838
H        2.1360046884   -0.8841857146    5.2123541332
H        0.0776215697    0.5152136307    5.2575338646
29   

C        2.6769506791   -3.3423017650    1.2095418274
C        1.4367156559   -2.7072571480    1.1136435023
C        3.4648326212   -3.1557187209    2.3481379199
C        0.9840442181   -1.8921457044    2.1566430108
C        3.0073276481   -2.3449954005    3.3934463637
C       -0.1473055331   -3.9494782794    4.9855032772
C        0.1562910887   -5.1446144995    4.3320066111
C       -1.7287830647   -3.4167009352    3.2438763282
C        1.7560300269   -1.7111318615    3.3170730880
C       -1.0746671631   -3.0604197232    4.4313764731
C       -0.4659161419   -5.4830347668    3.1249697128
C       -1.4286389874   -4.6132557611    2.5794574318
C        1.2673555624   -0.8976570741    4.4350585254
C        0.0007845896   -0.4420834512    4.6481393599
O       -2.6472965898   -0.8558689528    4.7481417514
O       -1.3129638272   -1.5648064097    6.6815699082
S       -1.3825302856   -1.4441575034    5.2166551981
Cl      -0.0303239127   -6.9743842131    2.3196016121
Cl      -2.2405141551   -4.9904720914    1.0758087522
H        3.0269945486   -3.9755228245    0.4017953850
H        0.8223730668   -2.8475278712    0.2312546429
H        4.4307042111   -3.6426804256    2.4224003041
H        0.0209669146   -1.4034580647    2.0621892826
H        3.6298168520   -2.2185371588    4.2722260983
H        0.3543523941   -3.6998280975    5.9168015897
H        0.8921642691   -5.8169386011    4.7567554178
H       -2.4689937286   -2.7470117481    2.8145628396
H        2.0120095032   -0.5756560506    5.1559988896
H       -0.2002007800    0.6177667440    4.6288624638
29   

C        3.0106100170   -3.2112023325    1.1642685162
C        1.6684285478   -2.8281282680    1.1084067655
C        3.7865684630   -2.8578720450    2.2710477535
C        1.1046980507   -2.0933532799    2.1570350558
C        3.2185882394   -2.1300533162    3.3230281355
C       -0.2837917525   -3.9985079159    4.9701359452
C       -0.1003241735   -5.2144147145    4.3105044892
C       -1.9591203421   -3.3868319049    3.3459312983
C        1.8688635228   -1.7415967136    3.2828036226
C       -1.2007499877   -3.0626485080    4.4792517935
C       -0.8324449396   -5.5261969843    3.1592910619
C       -1.7799084840   -4.6043586069    2.6756107763
C        1.2769913305   -1.0028857039    4.3975854594
C       -0.0020855130   -0.5246148487    4.5430945662
O       -2.6424675604   -0.7913246332    4.9279902043
O       -1.1428569919   -1.5483860456    6.7284070928
S       -1.3654795570   -1.4326158144    5.2783610517
Cl      -0.5520612926   -7.0505771370    2.3465864514
Cl      -2.7258158297   -4.9465757478    1.2435775310
H        3.4485164901   -3.7786966668    0.3505343116
H        1.0618546045   -3.0998950589    0.2516982682
H        4.8300764917   -3.1491087520    2.3150472365
H        0.0634005254   -1.8006213668    2.0918682586
H        3.8368557361   -1.8688782204    4.1747703386
H        0.2999711163   -3.7726739536    5.8589012395
H        0.6248556584   -5.9257146342    4.6879868853
H       -2.6910843021   -2.6788611905    2.9663927672
H        1.9466457041   -0.7687174569    5.2190462750
H       -0.2404919421    0.4817934156    4.2367294424
29   

C        3.4365497279   -2.9928039424    1.0959570724
C        2.0396926313   -2.9561622277    1.1021488756
C        4.1498840156   -2.4219655358    2.1532213992
C        1.3587969840   -2.3449753092    2.1608977464
C        3.4670169610   -1.8190117261    3.2157364830
C       -0.4924777299   -4.1049136684    4.9853551413
C       -0.4781493288   -5.3502586873    4.3554560720
C       -2.1911717783   -3.3611435889    3.4421975588
C        2.0632571542   -1.7704198418    3.2319095748
C       -1.3390601416   -3.0920182400    4.5221497030
C       -1.3103773507   -5.6133120627    3.2612307444
C       -2.1821908729   -4.6078719152    2.8023958944
C        1.3546585436   -1.1353721192    4.3402092845
C        0.0527815110   -0.6746322947    4.4313703258
O       -2.5565962983   -0.7083190881    5.0328807559
O       -0.9771576338   -1.5576862903    6.7277625863
S       -1.3104751745   -1.4436780373    5.2988724073
Cl      -1.2485632968   -7.1827874535    2.4891527508
Cl      -3.2480249880   -4.8858737955    1.4422997830
H        3.9649967769   -3.4610327789    0.2728638175
H        1.4818954656   -3.4003402148    0.2852785053
H        5.2339436345   -2.4440024186    2.1491679910
H        0.2751169501   -2.3243085588    2.1487344426
H        4.0373184917   -1.3780611340    4.0259555798
H        0.1622243520   -3.9208017694    5.8336402718
H        0.1884839942   -6.1256849485    4.7145730262
H       -2.8694347215   -2.5905761366    3.0850994652
H        1.9435379057   -0.9850998387    5.2396580649
H       -0.2252264385    0.2108103189    3.8819145526
