59

C      1.00975    1.87582    2.29741
C      1.28630    1.67438   -0.09564
C     -1.50246    0.22541    1.85435
C      2.33169    2.29625    2.41963
C      2.60630    2.09753    0.01951
C     -2.79857   -0.24828    1.70011
C     -1.80502   -3.68693    1.05341
C     -3.24829   -3.00332   -0.77002
C     -0.76438   -2.91880    0.53152
C     -2.20286   -2.23876   -1.30006
C     -1.74319    1.52902   -0.15676
C      0.46144    1.55974    1.04013
C     -0.94048    1.10725    0.91280
C      3.14115    2.41277    1.27857
C     -3.05762    1.08350   -0.32455
C     -3.56279    0.15790    0.60159
C     -3.05005   -3.73095    0.40829
C     -0.98127   -2.20590   -0.64341
C      4.55301    2.85689    1.35431
C     -3.92601    1.58138   -1.46406
C     -5.39114    1.15625   -1.28304
C     -5.41378   -0.29930   -0.82525
C     -6.79042   -0.94453   -0.73476
C     -6.54977   -2.83568    0.83984
C     -5.17923   -4.93737    0.30264
C     -6.43470   -4.35973    0.95308
N     -6.71467   -2.40473   -0.55762
O      5.30505    2.97967    0.40154
O     -4.81308   -0.39181    0.48176
O      4.96484    3.12988    2.62707
O     -6.50133   -4.75290    2.32590
O     -4.01661   -4.49309    1.02685
F      0.02759   -1.44868   -1.15651
H      0.38303    1.81714    3.18295
H      0.89459    1.39154   -1.06806
H     -0.89918   -0.13650    2.68192
H      2.73822    2.54585    3.39398
H      3.24550    2.17629   -0.85449
H     -3.21904   -0.97163    2.39173
H     -1.66796   -4.26004    1.96551
H     -4.21712   -2.98838   -1.25449
H      0.20158   -2.86755    1.02402
H     -2.34011   -1.65642   -2.20596
H     -1.34318    2.24695   -0.86990
H     -3.84874    2.67141   -1.53850
H     -3.54834    1.17975   -2.41352
H     -5.88654    1.77615   -0.52732
H     -5.94084    1.27002   -2.22321
H     -4.80864   -0.89592   -1.51861
H     -7.30210   -0.75084   -1.68346
H     -7.36928   -0.44814    0.06198
H     -7.38664   -2.51614    1.48129
H     -5.64511   -2.37546    1.23818
H     -5.12774   -4.67243   -0.75320
H     -5.19769   -6.02781    0.39655
H     -7.30132   -4.83202    0.47230
H     -7.58105   -2.80714   -0.91093
H      5.89642    3.40900    2.54590
H     -5.63872   -4.53487    2.71841
