59

C      1.25715    1.96025   -0.01120
C      0.28617    3.88173   -1.11161
C     -1.30870    0.53116   -0.69823
C      2.50037    2.59155   -0.01631
C      1.53342    4.50451   -1.11606
C     -2.55290   -0.09185   -0.71603
C     -8.41852   -1.80876   -5.82019
C     -6.35289   -3.08430   -5.93851
C     -8.33436   -1.53050   -7.18322
C     -6.26856   -2.80962   -7.30933
C     -2.38297    2.66630   -0.42948
C      0.12512    2.59530   -0.55943
C     -1.19140    1.93151   -0.56046
C      2.65876    3.87056   -0.56952
C     -3.64799    2.06776   -0.44825
C     -3.70715    0.68039   -0.59989
C     -7.42893   -2.58167   -5.20330
C     -7.25690   -2.03870   -7.90756
C      4.04498    4.56645   -0.57957
C     -4.90910    2.89898   -0.31315
C     -6.13352    2.02384   -0.01340
C     -6.08021    0.79065   -0.90852
C     -7.25176   -0.16401   -0.70312
C     -7.83480   -2.61228   -1.16828
C     -6.75379   -3.74587   -3.19463
C     -7.21487   -3.88973   -1.72686
N     -6.90998   -1.45559   -1.39892
O      4.05053    5.72441   -1.07595
O      4.98255    3.88158   -0.09092
O     -4.93670   -0.01035   -0.61693
O     -6.09672   -4.16135   -0.88282
O     -7.58921   -2.77974   -3.83199
F     -7.17590   -1.77423   -9.23090
H      1.15205    0.98210    0.45570
H     -0.56450    4.37731   -1.57726
H     -0.41210   -0.06758   -0.82267
H      3.38337    2.12367    0.41026
H      1.68165    5.49054   -1.54777
H     -2.63785   -1.17000   -0.82983
H     -9.25220   -1.43935   -5.23016
H     -5.57404   -3.67983   -5.47600
H     -9.09008   -0.93546   -7.68596
H     -5.44304   -3.18580   -7.90501
H     -2.32158    3.74136   -0.28115
H     -4.78303    3.64258    0.47919
H     -5.08085    3.46100   -1.23973
H     -6.12113    1.69083    1.03069
H     -7.06333    2.57867   -0.18181
H     -6.03792    1.10637   -1.96486
H     -8.18634    0.22002   -1.11539
H     -7.37998   -0.39928    0.35528
H     -8.78417   -2.38202   -1.64930
H     -7.97324   -2.72112   -0.09198
H     -6.81187   -4.70795   -3.71642
H     -5.70683   -3.41478   -3.19891
H     -7.97548   -4.67491   -1.64168
H     -6.86568   -1.29988   -2.41528
H     -5.94971   -1.68803   -1.09108
H     -5.74544   -5.04949   -1.05748
