23   

C       -4.8396786244   -6.8726048663   -2.0227349717
C        1.2448639559   -4.8178432001    3.1690809087
C       -3.3355728355   -4.8946904544   -1.4716640763
C        1.0687234132   -5.3724290215    1.9412519622
C       -3.7733085536   -6.5056956506    0.1792862585
C       -4.0133633981   -6.1338649782   -1.1177027464
C       -2.5758945630   -4.3762083332   -0.4440670977
C        0.7218924030   -3.4990147232    3.4338612620
C       -0.1368160886   -3.3637157877    1.3069618076
C       -1.8558197225   -3.1092718631   -0.4969829350
C       -0.8855133087   -2.6259284124    0.3053439557
N       -5.5076592434   -7.4764816678   -2.7611979336
N        0.0396734317   -2.8014337630    2.4635908536
N        0.3727724510   -4.6248843067    0.9922011350
O        0.8730784647   -3.0046974284    4.5376469473
S       -2.7159299497   -5.3751129149    1.0130758980
H        1.7676060902   -5.3284514025    3.9653938732
H       -3.4332581945   -4.4289457474   -2.4468893647
H        1.4603196704   -6.3638241052    1.7249668611
H       -4.1877863364   -7.3928462718    0.6445872044
H       -2.1554131285   -2.4462768402   -1.3024933556
H       -0.7001972506   -1.5592325466    0.2909263107
H        0.1892164080   -4.9710074328    0.0576096785
23   

C       -4.5228390865   -7.0162339131   -1.9715293315
C        1.3194467998   -4.8922503828    3.0939547519
C       -3.1738407547   -4.9317808196   -1.4118557403
C        0.9535855054   -5.4573665833    1.9138956877
C       -3.8232512785   -6.3840011710    0.3162270340
C       -3.8674432085   -6.1555132439   -1.0349365580
C       -2.6029852662   -4.2822133003   -0.3396613593
C        0.9604106747   -3.5209867855    3.3654246972
C       -0.1089677976   -3.3515416572    1.3382482700
C       -1.8925396744   -3.0039293597   -0.3854846690
C       -0.8861604128   -2.5637883956    0.3957690864
N       -5.0506535915   -7.7195630573   -2.7349424524
N        0.2481548965   -2.7817647695    2.4487844738
N        0.2332560475   -4.6671916487    1.0195613027
O        1.2787704158   -3.0172860594    4.4286920075
S       -2.9379005427   -5.1323587150    1.1779848496
H        1.8751534436   -5.4329522414    3.8468693571
H       -3.1239188333   -4.5720817990   -2.4345397687
H        1.2188394779   -6.4886877546    1.6924733796
H       -4.2828237932   -7.2360492193    0.8044070050
H       -2.2037520915   -2.3262736735   -1.1742715988
H       -0.6739150806   -1.5019139664    0.4014381831
H       -0.0942609183   -5.0186378554    0.1269500950
23   

C       -4.2282508657   -7.1190921567   -2.0250249235
C        1.2576023118   -5.1056840713    3.0552272215
C       -3.0406647212   -4.9613266818   -1.3832767003
C        0.7177884787   -5.6378420611    1.9279799165
C       -3.9489034773   -6.3233520865    0.3015813039
C       -3.7635197206   -6.1807674922   -1.0497583494
C       -2.6858893365   -4.2274822960   -0.2751960064
C        1.0647145373   -3.7041668515    3.3404106512
C       -0.1811371150   -3.4375712047    1.4265774045
C       -1.9832621180   -2.9375394695   -0.2452337877
C       -0.9595047789   -2.5737040771    0.5508525503
N       -4.5999234484   -7.8857939541   -2.8186998965
N        0.3401530313   -2.9019813079    2.4884068294
N       -0.0083307629   -4.7841051241    1.0995660303
O        1.5394180975   -3.2285371343    4.3573263386
S       -3.2528130527   -4.9926205625    1.2173605278
H        1.8323538852   -5.6950194649    3.7554712445
H       -2.8148812600   -4.6659608676   -2.4030398343
H        0.8551277889   -6.6916765415    1.6964624187
H       -4.4683776026   -7.1577255335    0.7595164117
H       -2.2952023635   -2.2097887922   -0.9878084941
H       -0.7124142487   -1.5208818685    0.6098047176
H       -0.4621106788   -5.1058727592    0.2516922666
23   

C       -3.9333273903   -7.2305890032   -2.0033874383
C        1.2346364415   -5.2063825495    2.9790711825
C       -2.8995899590   -5.0004519707   -1.3428390895
C        0.5453432927   -5.7244235633    1.9296293791
C       -4.0413628932   -6.2664327896    0.2734761731
C       -3.6461048917   -6.2132988189   -1.0389261049
C       -2.7462589441   -4.1799471092   -0.2514413885
C        1.1777568800   -3.7869129442    3.2327933766
C       -0.2236866771   -3.4724446593    1.4362858134
C       -2.0581094473   -2.8783394278   -0.1748922471
C       -1.0065030573   -2.5665569438    0.6048532534
N       -4.1599013124   -8.0617181520   -2.7867227975
N        0.4381401005   -2.9526767643    2.4255024091
N       -0.1925301180   -4.8383588546    1.1471499846
O        1.7857936921   -3.3227791322    4.1818113046
S       -3.5228786872   -4.8554289565    1.1873007664
H        1.8306439036   -5.8201653746    3.6393708899
H       -2.5115169691   -4.7728218957   -2.3308645578
H        0.5780093955   -6.7916297783    1.7221367192
H       -4.6129032067   -7.0812807716    0.7039563403
H       -2.4007796957   -2.1113039355   -0.8623918881
H       -0.7242812418   -1.5233842341    0.6778956345
H       -0.7503042435   -5.1454507442    0.3574543647
23   

C       -3.6704568754   -7.2728032893   -1.9714264484
C        1.2182282568   -5.2202696657    2.9347491694
C       -2.7765390183   -4.9948424775   -1.2708717584
C        0.3847314873   -5.7327636617    1.9928118755
C       -4.1752519042   -6.1849084520    0.1936861805
C       -3.5590999122   -6.1993101557   -1.0318626373
C       -2.8224693223   -4.1126633279   -0.2195892088
C        1.2831627597   -3.7908742509    3.1204925998
C       -0.2784516509   -3.4544718309    1.4642425099
C       -2.1545817800   -2.8016113928   -0.0838936948
C       -1.0762537401   -2.5252193828    0.6711194538
N       -3.7542822752   -8.1499363651   -2.7324737863
N        0.5185466116   -2.9419909393    2.3528354962
N       -0.3744749379   -4.8310924405    1.2495453999
O        2.0217699660   -3.3299604184    3.9736539100
S       -3.8293673453   -4.7176137150    1.1009180537
H        1.8419238904   -5.8456114785    3.5575401039
H       -2.2203877449   -4.8170447135   -2.1864273604
H        0.3241184413   -6.8075225487    1.8370732697
H       -4.8091804439   -6.9827443410    0.5648123746
H       -2.5546604922   -1.9916218967   -0.6858637641
H       -0.7701853463   -1.4888377948    0.7464692772
H       -1.0261700334   -5.1314781845    0.5322871551
23   

C       -3.4694076590   -7.3206297106   -1.9299181409
C        1.2408634606   -5.2510578075    2.8713593404
C       -2.6725533988   -5.0250371743   -1.1718906399
C        0.2715425015   -5.7558733529    2.0649524830
C       -4.3526431551   -6.1228786738    0.0478656145
C       -3.5138595290   -6.2053371794   -1.0345277411
C       -2.8957445726   -4.0950196936   -0.1864710050
C        1.4128730621   -3.8215567669    2.9616123793
C       -0.3093441063   -3.4699520763    1.4755559515
C       -2.2448063262   -2.7825088333    0.0095313721
C       -1.1350841041   -2.5282283785    0.7258710696
N       -3.4280872525   -8.2321213088   -2.6530911615
N        0.6150201074   -2.9659225140    2.2367873045
N       -0.5157096611   -4.8463169972    1.3612050460
O        2.2751361097   -3.3658984166    3.6929400920
S       -4.1521749748   -4.6187341018    0.9388010801
H        1.8960561354   -5.8825528475    3.4543162179
H       -1.9511487887   -4.8957063994   -1.9734648199
H        0.1287420525   -6.8309664244    1.9825486758
H       -5.0645647642   -6.8927439825    0.3248433044
H       -2.7247499234   -1.9339018143   -0.4680837251
H       -0.8142410539   -1.4958373751    0.7957060737
H       -1.2588628089   -5.1411529273    0.7366135072
23   

C       -3.7551957533   -7.7365250972   -0.6902387497
C        1.0851009894   -4.9767514042    3.3214702637
C       -2.5894590470   -5.4736829018   -0.6759292652
C       -0.0744157078   -5.4539374336    2.7991487297
C       -4.7086634842   -5.6847492156    0.3132056114
C       -3.7075293743   -6.3473361259   -0.3504543112
C       -2.7725535376   -4.1859538662   -0.2321593216
C        1.6379125509   -3.7464253843    2.8101500650
C       -0.0988937799   -3.5290469072    1.3150707420
C       -1.8844894846   -3.0202834267   -0.3997262297
C       -0.7333249351   -2.7612427496    0.2483604353
N       -3.7925850936   -8.8688524029   -0.9584490710
N        1.0095393363   -3.0551533433    1.7997716204
N       -0.6738827009   -4.7122463077    1.7825438334
O        2.6752025089   -3.3127097706    3.2812444824
S       -4.3320184488   -3.9852555867    0.5713312674
H        1.6169021022   -5.4859872103    4.1125353940
H       -1.7105590115   -5.8056847906   -1.2212906125
H       -0.5048256556   -6.3809389439    3.1711862367
H       -5.6321549410   -6.1502530539    0.6398471372
H       -2.2359267351   -2.2523594323   -1.0819546143
H       -0.2009530833   -1.8597213798   -0.0302350451
H       -1.5366041193   -5.0030298421    1.3349307999
23   

C       -3.6029597867   -7.7541976585   -0.5877370404
C        1.0941271600   -5.0337801224    3.2812436591
C       -2.5249155558   -5.4493830146   -0.5191816932
C       -0.1517569824   -5.4057299695    2.8879165576
C       -4.7920466870   -5.6783199374    0.0460963447
C       -3.6613818393   -6.3437292701   -0.3538329019
C       -2.8244022789   -4.1413877275   -0.2150606391
C        1.7082853586   -3.8739704417    2.6827071343
C       -0.1377584105   -3.5210707650    1.3537986646
C       -1.9631928950   -2.9534870915   -0.3040592833
C       -0.7985019569   -2.7169289226    0.3317428923
N       -3.5565606610   -8.9034294798   -0.7684623216
N        1.0513446330   -3.1451761614    1.7180345756
N       -0.7755174250   -4.6300935868    1.9118103808
O        2.8246383204   -3.5354297953    3.0364464946
S       -4.5195549069   -3.9509316413    0.2421488747
H        1.6508626918   -5.5764118606    4.0319455198
H       -1.5483433189   -5.7817633080   -0.8602320599
H       -0.6294993977   -6.2782623373    3.3277802727
H       -5.7491897338   -6.1578555442    0.2194229679
H       -2.3546479969   -2.1327328476   -0.8971831086
H       -0.2640465236   -1.8140372590    0.0616928190
H       -1.7003606541   -4.8464005877    1.5552945085
23   

C       -3.4685937096   -7.7663320944   -0.4758516670
C        1.0867934364   -5.0762105961    3.2447448390
C       -2.4823082770   -5.4226054995   -0.3641021240
C       -0.2203484506   -5.3405341747    2.9859122842
C       -4.8085478746   -5.7018738728   -0.2189289240
C       -3.6062945733   -6.3472534538   -0.3543431706
C       -2.8655498282   -4.1085318843   -0.2097524275
C        1.7386184213   -3.9884485001    2.5572150421
C       -0.1899526769   -3.4997131483    1.4005905646
C       -2.0469325253   -2.8938293911   -0.2077348503
C       -0.8758102927   -2.6647782064    0.4223335443
N       -3.3603653498   -8.9222398912   -0.5642138368
N        1.0565232712   -3.2230068084    1.6395252116
N       -0.8672233227   -4.5304072697    2.0536805101
O        2.9104447818   -3.7466480670    2.7901261306
S       -4.6216913009   -3.9569269191   -0.0923766219
H        1.6655196955   -5.6532053938    3.9519712694
H       -1.4518375101   -5.7408076926   -0.4964723198
H       -0.7270374010   -6.1574811503    3.4948030660
H       -5.7684901303   -6.2057492155   -0.1949988208
H       -2.4690143133   -2.0442531426   -0.7356817473
H       -0.3459247872   -1.7559285760    0.1637721850
H       -1.8362245223   -4.6733361367    1.7896701609
23   

C       -3.3752747286   -7.7451784958   -0.3911455264
C        1.0752969333   -5.1311363155    3.2317919820
C       -2.4412403317   -5.3836753447   -0.2239680427
C       -0.2691091416   -5.2749540906    3.0993288646
C       -4.7514783610   -5.6921054920   -0.5022442058
C       -3.5416840021   -6.3240668184   -0.3755235887
C       -2.8520739020   -4.0671543493   -0.2180395087
C        1.7588215863   -4.1201936319    2.4623119183
C       -0.2127951306   -3.4778676981    1.4662565028
C       -2.0786683971   -2.8324699897   -0.1094899704
C       -0.9083155720   -2.6098224394    0.5268110390
N       -3.2461605304   -8.9023752652   -0.3931521043
N        1.0694593685   -3.3118040630    1.5878032155
N       -0.9217869120   -4.4229262309    2.2093279981
O        2.9641697760   -3.9854463338    2.5837070478
S       -4.6012299295   -3.9407000888   -0.4369042885
H        1.6610508271   -5.7493226340    3.8972449334
H       -1.4042165098   -5.6980397948   -0.1472549157
H       -0.7997012585   -6.0323596500    3.6720484416
H       -5.6958706362   -6.2092162200   -0.6305769831
H       -2.5181872701   -1.9635152484   -0.5894538873
H       -0.3789664722   -1.6956643289    0.2871273386
H       -1.9190542032   -4.4818709543    2.0344549614
23   

C       -3.3552945115   -7.7593603700   -0.2896248426
C        1.1120961710   -5.1185311174    3.1724666333
C       -2.4615479542   -5.3848054074   -0.0935134659
C       -0.2449354104   -5.1858671528    3.1733799740
C       -4.6903898813   -5.7274865733   -0.7452416415
C       -3.5206945059   -6.3409581121   -0.3806611748
C       -2.8626177378   -4.0713657039   -0.2335140624
C        1.7741873676   -4.1669434790    2.3135058115
C       -0.2443428676   -3.4402938658    1.4856559527
C       -2.1511503952   -2.8123542944   -0.0390065839
C       -0.9804318030   -2.5647851851    0.5881849028
N       -3.2284604964   -8.9137714638   -0.2049545948
N        1.0504050475   -3.3433310341    1.4822055766
N       -0.9321588865   -4.3185759945    2.3247451025
O        2.9910873711   -4.0977535277    2.3190316374
S       -4.5510091382   -3.9746215142   -0.7499184815
H        1.7238585323   -5.7545125424    3.7965182442
H       -1.4560549951   -5.6954710945    0.1726385879
H       -0.7589018286   -5.8969512458    3.8163845027
H       -5.5997180370   -6.2584511178   -1.0036039436
H       -2.6229700476   -1.9418783129   -0.4842540786
H       -0.4775442785   -1.6337356725    0.3573870587
H       -1.9435896768   -4.3179030366    2.2538993220
23   

C       -4.2477830186   -7.2419908634    1.0210134576
C        1.1405182346   -4.9920600733    3.1332603689
C       -2.8716326808   -5.1600315869    0.5250979608
C        0.8166579263   -5.5764060633    1.9499969579
C       -4.6215177393   -5.7575054702   -0.9213259049
C       -3.9433238469   -6.0964734406    0.2193548706
C       -2.7604361569   -4.1385743421   -0.3980093149
C        0.8368092931   -3.5969847788    3.3424170479
C       -0.1176083327   -3.4461965607    1.2568609193
C       -1.8372076573   -3.0165727477   -0.5262728872
C       -0.7948012423   -2.6493256930    0.2501564303
N       -4.4898831528   -8.1820253610    1.6642940605
N        0.2037426022   -2.8589022378    2.3690016397
N        0.1906272845   -4.7814108887    0.9901365492
O        1.1395272596   -3.0680594149    4.3979678263
S       -3.9854328070   -4.2970496301   -1.6643874695
H        1.6244317607   -5.5340689496    3.9334430220
H       -2.2621451341   -5.2632771255    1.4155802000
H        1.0426391309   -6.6262441925    1.7765869321
H       -5.4560250612   -6.3215149906   -1.3223815204
H       -2.0600322619   -2.3288967976   -1.3361775680
H       -0.4686191306   -1.6181090559    0.1977199196
H       -0.0856484991   -5.1424773205    0.0841952928
23   

C       -4.3456619960   -7.2065977157    1.0165555524
C        1.1492108811   -5.1448874870    3.1447504882
C       -2.9887915372   -5.0920913774    0.6121712844
C        0.6616520371   -5.7019879434    2.0054468872
C       -4.4364275258   -5.8709576571   -1.0634535311
C       -3.9524864415   -6.1010213778    0.1976392604
C       -2.7571932226   -4.1329223614   -0.3532039301
C        0.9868192423   -3.7286311659    3.3672609951
C       -0.1471221367   -3.4997272177    1.3798771581
C       -1.8789630934   -2.9677805115   -0.3733213505
C       -0.8476421005   -2.6432061208    0.4367715884
N       -4.6591725725   -8.1144070848    1.6749725892
N        0.3278748088   -2.9411135568    2.4513852021
N        0.0162315278   -4.8579515806    1.1022744010
O        1.4326709003   -3.2251779520    4.3838327590
S       -3.7406983190   -4.4298929332   -1.7923618557
H        1.6608815578   -5.7246441867    3.8998937974
H       -2.5330541683   -5.0952818126    1.5973911082
H        0.7774346790   -6.7679905925    1.8224542297
H       -5.1661641764   -6.5019208808   -1.5583498451
H       -2.0998818447   -2.2368151691   -1.1449904309
H       -0.5303249447   -1.6077566828    0.4502510958
H       -0.3895966172   -5.1980471955    0.2376028519
23   

C       -4.4319935806   -7.1520063523    1.0106449275
C        1.1812206441   -5.1949264575    3.1099769701
C       -3.0935323135   -5.0179580772    0.6481615753
C        0.5562857897   -5.7427235679    2.0352553157
C       -4.2338301304   -5.9844290146   -1.1616646087
C       -3.9476489140   -6.0969027392    0.1741881153
C       -2.7394096104   -4.1317516525   -0.3474070289
C        1.1245368253   -3.7674215930    3.3108075074
C       -0.1677139533   -3.5057811109    1.4257029547
C       -1.9239268504   -2.9207490960   -0.2930981808
C       -0.8934295161   -2.6200102662    0.5264911410
N       -4.8192844376   -8.0187557314    1.6848330648
N        0.4349533079   -2.9581073636    2.4373220983
N       -0.1178521604   -4.8777292123    1.1742344603
O        1.6893849184   -3.2729595103    4.2711259718
S       -3.4762529963   -4.5745954176   -1.8915427280
H        1.7255090178   -5.7905140064    3.8290843680
H       -2.7913041859   -4.9190439634    1.6869124679
H        0.5891962010   -6.8172355383    1.8693004962
H       -4.8576452609   -6.6818609341   -1.7095640011
H       -2.1653056292   -2.1628206919   -1.0319516292
H       -0.5808562691   -1.5838534109    0.5714339363
H       -0.6299868399   -5.2090725284    0.3639715811
23   

C       -4.5630857724   -7.1271198975    0.9421633164
C        1.2296039531   -5.2057816275    3.0988358541
C       -3.2334060344   -4.9750175438    0.6618855109
C        0.4529744703   -5.7562878923    2.1296716256
C       -4.0184231492   -6.1006297491   -1.2426057317
C       -3.9654644922   -6.1138458708    0.1275247903
C       -2.7324729784   -4.1487683126   -0.3200279454
C        1.2807966446   -3.7706221553    3.2347938556
C       -0.1947942158   -3.5040080075    1.4890505345
C       -1.9857242357   -2.8952032933   -0.1915814842
C       -0.9538577988   -2.6053614509    0.6283814100
N       -5.0421164054   -7.9590969134    1.6009402725
N        0.5483555351   -2.9556723826    2.4025194822
N       -0.2625006882   -4.8861310772    1.3082414599
O        1.9798916551   -3.2736920917    4.1009467380
S       -3.1802286300   -4.7157939673   -1.9321252709
H        1.8172988610   -5.8045561276    3.7800851809
H       -3.1127066556   -4.7922089030    1.7261503503
H        0.4022020114   -6.8366043832    2.0137260044
H       -4.5214423202   -6.8547478444   -1.8377781978
H       -2.2609943778   -2.1130207837   -0.8923530935
H       -0.6471217808   -1.5680373205    0.6876933942
H       -0.8794418620   -5.2165145149    0.5738485057
23   

C       -4.6798749877   -7.1500101654    0.8446481854
C        1.2663940772   -5.1187013599    3.0681852493
C       -3.4030798713   -4.9573501548    0.6419725328
C        0.3648483534   -5.6876659525    2.2262999615
C       -3.7674084725   -6.2602101964   -1.2768235110
C       -3.9759993601   -6.1697542745    0.0757522936
C       -2.7580089119   -4.1824417872   -0.2941928628
C        1.3868849032   -3.6819178798    3.1097948863
C       -0.2599183934   -3.4483572352    1.5185975022
C       -2.1036579184   -2.8780463272   -0.1179319999
C       -1.0712571609   -2.5638417472    0.6896178942
N       -5.2452304152   -7.9539427408    1.4688375388
N        0.5986080639   -2.8833900569    2.3133773900
N       -0.4044182512   -4.8341727060    1.4368407211
O        2.1980874430   -3.1685978761    3.8610858264
S       -2.8668687322   -4.8872699062   -1.9097909629
H        1.9041692299   -5.7037106147    3.7154590396
H       -3.4897979223   -4.6897203346    1.6914213508
H        0.2598616319   -6.7693850768    2.1827837855
H       -4.1192275817   -7.0814148705   -1.8916129782
H       -2.4460540122   -2.0876292063   -0.7787465326
H       -0.7898809915   -1.5191316853    0.7461207424
H       -1.1072073420   -5.1779598213    0.7909861650
23   

C       -4.8042474855   -7.1365314481    0.7140476247
C        1.3262742239   -5.0769548864    3.0225411318
C       -3.5629973988   -4.9164579333    0.6134062142
C        0.3049076376   -5.6369139218    2.3237736408
C       -3.5019917944   -6.3561215244   -1.2406632017
C       -3.9818024405   -6.1840802965    0.0328781051
C       -2.7661642862   -4.1809535933   -0.2308747392
C        1.5244771035   -3.6493574450    2.9641254592
C       -0.2791219357   -3.4063619824    1.5545085156
C       -2.1811597213   -2.8446548457   -0.0123259082
C       -1.1349829466   -2.5214048686    0.7707805541
N       -5.4665775094   -7.9165276002    1.2694075027
N        0.6911153233   -2.8499948049    2.2157455095
N       -0.5052939535   -4.7838484280    1.5762265042
O        2.4442317800   -3.1449081205    3.5850873984
S       -2.5245268933   -4.9953540477   -1.7788380502
H        2.0039256951   -5.6625422932    3.6273493234
H       -3.8600449010   -4.5858753604    1.6046612060
H        0.1394427930   -6.7113795406    2.3575201786
H       -3.7035215106   -7.2284593785   -1.8527390702
H       -2.6077761185   -2.0393161624   -0.6023079635
H       -0.8638799157   -1.4739289177    0.8262358248
H       -1.2924224974   -5.1211764632    1.0323160222
23   

C       -4.9088931867   -7.1294917366    0.5618282571
C        1.3770750551   -5.0743195411    2.9617107009
C       -3.7145291590   -4.8816015735    0.5658232904
C        0.2468211738   -5.6031878781    2.4254912295
C       -3.2487221254   -6.4315805162   -1.1361132496
C       -3.9828303001   -6.1953552358   -0.0015298961
C       -2.7823596848   -4.1728936296   -0.1513889512
C        1.6527953639   -3.6690842260    2.7870256478
C       -0.2889092493   -3.3862540187    1.5837827920
C       -2.2549737479   -2.8167435636    0.1081130942
C       -1.1828331683   -2.4930368062    0.8531899286
N       -5.6559471764   -7.8935024298    1.0241058133
N        0.7837831843   -2.8586788123    2.0926650501
N       -0.5940755915   -4.7417891859    1.7232141379
O        2.6716236085   -3.1943105534    3.2587676447
S       -2.2070311483   -5.0767492108   -1.5553279372
H        2.0859987320   -5.6687573367    3.5202579966
H       -4.2060198480   -4.5044420939    1.4579355428
H        0.0212787621   -6.6600136806    2.5490174284
H       -3.3040036586   -7.3464016370   -1.7160172158
H       -2.7864694548   -1.9977658491   -0.3666340852
H       -0.9117546981   -1.4454601056    0.9056119106
H       -1.4582008339   -5.0565110901    1.2947793259
23   

C       -5.0113603703   -7.1115551094    0.3768113295
C        1.4320355746   -5.0576990840    2.9148855532
C       -3.8395716203   -4.8549817108    0.4941284008
C        0.2198506419   -5.5493002502    2.5494427908
C       -3.0558218572   -6.4847936764   -1.0048859255
C       -3.9943129357   -6.1982201117   -0.0462747249
C       -2.7893796781   -4.1723635583   -0.0686024057
C        1.7610585688   -3.6863024412    2.6100932524
C       -0.2876973844   -3.3639465999    1.6132530385
C       -2.3132658330   -2.8046981986    0.2249111366
C       -1.2142037863   -2.4712279298    0.9249885105
N       -5.8337251437   -7.8576499035    0.7270120913
N        0.8621928746   -2.8701614841    1.9616407530
N       -0.6494589403   -4.6847596097    1.8870809387
O        2.8531062180   -3.2469846621    2.9267929422
S       -1.9526096533   -5.1432087485   -1.2854870516
H        2.1683300609   -5.6576660977    3.4304701875
H       -4.4905182379   -4.4411257776    1.2584266547
H       -0.0465921047   -6.5799178618    2.7727591601
H       -2.9985264413   -7.4282061891   -1.5367061602
H       -2.9371639790   -1.9900283603   -0.1294592471
H       -0.9428625031   -1.4231438829    0.9615604354
H       -1.5699546636   -4.9746125914    1.5739189060
23   

C       -5.8346476247   -6.1549146383    0.4991413810
C        0.9843850150   -5.0639180180    3.3165684579
C       -4.0805507456   -4.3326850754    0.2144114976
C       -0.3496454528   -5.2170732244    3.1122996189
C       -3.5479633275   -6.5467348177   -0.3627922984
C       -4.5253643493   -5.7163561131    0.1236344330
C       -2.7808332314   -4.1613058387   -0.1969907950
C        1.7127556579   -4.0893764447    2.5405219958
C       -0.1990106298   -3.4865833842    1.4126167758
C       -1.9946726664   -2.9152065596   -0.2496634384
C       -0.8463385153   -2.6578933702    0.4031810305
N       -6.8975760176   -6.5124626718    0.8122999423
N        1.0743168895   -3.3128960987    1.6002159381
N       -0.9467707445   -4.4111758908    2.1449253021
O        2.9122855944   -3.9599998872    2.7141702856
S       -2.0566418512   -5.6865934144   -0.7246636657
H        1.5290664640   -5.6482757193    4.0444408195
H       -4.7155371428   -3.5257704750    0.5669617172
H       -0.9151495591   -5.9453606251    3.6892328067
H       -3.6754947440   -7.6129918023   -0.5137244829
H       -2.4191566560   -2.1021617423   -0.8303470641
H       -0.2981474694   -1.7654222901    0.1271817632
H       -1.9331489025   -4.4757530610    1.9170559523
23   

C       -5.8965407174   -6.1721916020    0.1937564017
C        1.1151924526   -5.0131921490    3.2690119064
C       -4.1349359169   -4.3387818612    0.0778744917
C       -0.2400588268   -5.0859536022    3.2117631502
C       -3.4976439743   -6.5741258076   -0.2624693135
C       -4.5473961773   -5.7336158661    0.0065791068
C       -2.7846445017   -4.1673659525   -0.1217583624
C        1.8153126639   -4.1170405985    2.3804576138
C       -0.1642223796   -3.4393986669    1.4274489207
C       -2.0392274859   -2.9018557203   -0.1500222404
C       -0.8660428283   -2.6210437912    0.4493075904
N       -6.9933906064   -6.5291018000    0.3532171320
N        1.1294833965   -3.3389865724    1.4756552834
N       -0.8869425302   -4.2791363100    2.2774314194
O        3.0320545359   -4.0592693213    2.4238842712
S       -1.9748947295   -5.7104997887   -0.4341432337
H        1.6977276345   -5.6052383246    3.9604822513
H       -4.8279658639   -3.5242517877    0.2633141439
H       -0.7838782532   -5.7543109351    3.8755318278
H       -3.5901465494   -7.6497942906   -0.3630624067
H       -2.5170267821   -2.0814066958   -0.6762515622
H       -0.3397322993   -1.7265995708    0.1395766770
H       -1.8935362575   -4.2895578110    2.1549437161
23   

C       -5.9319332260   -6.2207492594   -0.1140179528
C        1.2341018741   -4.8251225732    3.2011557397
C       -4.2153092511   -4.3427267752   -0.0492620077
C       -0.1191460284   -4.8322072094    3.3212632513
C       -3.4827112131   -6.5730236589   -0.1255924576
C       -4.5801529656   -5.7517413067   -0.0963176925
C       -2.8534702361   -4.1378474805   -0.0185599096
C        1.8517383185   -4.0102172299    2.1826174816
C       -0.2031908423   -3.2879076368    1.4496567949
C       -2.1759453275   -2.8410428053   -0.0274044152
C       -0.9928834490   -2.4976805937    0.5197457641
N       -7.0322177236   -6.6020247517   -0.1220310548
N        1.0887861258   -3.2464865886    1.3290361686
N       -0.8468011672   -4.0422387491    2.4326920833
O        3.0651238076   -4.0124536039    2.0673124005
S       -1.9722066336   -5.6728819706   -0.0915885099
H        1.8752624341   -5.4109410801    3.8444121384
H       -4.9483646544   -3.5424898925   -0.0468985295
H       -0.6001897441   -5.4384650408    4.0855007410
H       -3.5337647084   -7.6551939341   -0.1681607589
H       -2.7131882300   -2.0384804666   -0.5229003804
H       -0.5224806423   -1.5829198516    0.1812362079
H       -1.8598017776   -4.0066590700    2.4425028780
23   

C       -5.9315889250   -6.2360045554   -0.4632094415
C        1.3109930971   -4.8468293015    3.1951892488
C       -4.2299689834   -4.3649982741   -0.1762789131
C       -0.0143309863   -4.7351945110    3.4730265016
C       -3.5331788309   -6.5981244781    0.0232644349
C       -4.6017330303   -5.7724581895   -0.2097948003
C       -2.8970837661   -4.1595119234    0.1108217185
C        1.8606734040   -4.1414850812    2.0623120121
C       -0.2077444618   -3.2957074335    1.5286137205
C       -2.2385632864   -2.8584407586    0.1328959242
C       -1.0451988291   -2.5009424778    0.6484871620
N       -7.0150891795   -6.6127553155   -0.6639347100
N        1.0595645764   -3.3653601772    1.2564356613
N       -0.7832855198   -3.9371360643    2.6271064691
O        3.0474182870   -4.2504121623    1.8067695171
S       -2.0452088117   -5.7025507370    0.2971130467
H        1.9794298176   -5.4484059811    3.7946856729
H       -4.9376969020   -3.5653596929   -0.3691311634
H       -0.4429038973   -5.2575205348    4.3253791074
H       -3.5917475113   -7.6805878556    0.0355931715
H       -2.7892567980   -2.0568850770   -0.3491604719
H       -0.5975728832   -1.5782940384    0.3011484411
H       -1.7805877282   -3.8131341517    2.7572180270
23   

C       -5.0528522476   -6.7210336271   -1.8896524733
C        1.3218551081   -4.8191982983    3.2560335672
C       -3.3874579789   -4.8600859352   -1.3969714360
C        1.2891807021   -5.3435567255    2.0029459393
C       -3.6063906864   -6.6414836238    0.1150709343
C       -4.0491037039   -6.1149770047   -1.0693948003
C       -2.4381355974   -4.4809708586   -0.4702372340
C        0.6712033293   -3.5571606622    3.5146892058
C       -0.0333745455   -3.4227601757    1.3320744829
C       -1.7053181007   -3.2237986619   -0.5244066598
C       -0.7606210701   -2.7164126152    0.2939963317
N       -5.8663608790   -7.2169072765   -2.5594270606
N        0.0053783242   -2.8874590467    2.5139428405
N        0.6088520523   -4.6230188648    1.0220009249
O        0.7010094793   -3.0867778771    4.6386802167
S       -2.3713823871   -5.6422064960    0.8672141080
H        1.8227540135   -5.3121657262    4.0771341036
H       -3.6350000457   -4.2811637004   -2.2806973507
H        1.7786229783   -6.2915766483    1.7915102218
H       -3.9745544752   -7.5656778918    0.5457902851
H       -2.0051435041   -2.5605072816   -1.3295386373
H       -0.5913520092   -1.6473678600    0.2684943604
H        0.5359443005   -4.9467568878    0.0646850943
