17   
Generated by ForceBalance from scan.xyz: Frame 1 of 24
C        1.7616128495   -0.9209984683   -0.1015716357
C        1.8787264772   -1.2229589986    2.6725968495
C        0.6872454931   -0.4462066185    0.6701555579
C        2.9497035077   -1.6748774795    1.8946278757
C        2.8666759963   -1.5011233916    0.5039926940
C        0.7565653782   -0.6505091685    2.0582643956
C       -1.3021068065   -0.7366356992   -0.5729186227
O        4.0779909577   -2.2583676140    2.4049961100
O       -0.3805019966    0.1659383235    0.0622798042
F        3.8882605663   -1.9355811906   -0.2649777891
I       -0.5634909481    0.6246684766    3.3442493486
H        1.7467999417   -0.8075750194   -1.1816244063
H        1.9152153587   -1.3181538927    3.7541623096
H       -2.0454214339   -0.1100568566   -1.0688059284
H       -1.7918519813   -1.3735304348    0.1725616087
H       -0.7932845363   -1.3624445894   -1.3156567276
H        3.9113555652   -2.5312881857    3.3210484667
17   
Generated by ForceBalance from scan.xyz: Frame 2 of 24
C        1.7592617690   -0.9109792533   -0.0940235873
C        1.8798937835   -1.1917013810    2.6833707239
C        0.6834181887   -0.4380997803    0.6757644584
C        2.9506963655   -1.6477161894    1.9069515719
C        2.8662061030   -1.4852342119    0.5155647525
C        0.7537113944   -0.6317250466    2.0660965486
C       -1.3044122508   -0.7462636408   -0.5657712035
O        4.0836923477   -2.2183063380    2.4296185518
O       -0.3878529425    0.1644686402    0.0652065870
F        3.8858381052   -1.9239404132   -0.2528355582
I       -0.5757870689    0.6430371522    3.3441389146
H        1.7425612393   -0.8053365637   -1.1748428707
H        1.9213340894   -1.2747699037    3.7653513710
H       -2.0518523579   -0.1261512776   -1.0635441151
H       -1.7898098661   -1.3829540346    0.1826858283
H       -0.7923541003   -1.3718675701   -1.3064121059
H        3.8576935036   -2.6919856884    3.2453923168
17   
Generated by ForceBalance from scan.xyz: Frame 3 of 24
C        1.7634248363   -0.9083874502   -0.0901668447
C        1.8831497937   -1.1619406094    2.6899904424
C        0.6848320491   -0.4353024237    0.6743327171
C        2.9568724273   -1.6209039285    1.9187713646
C        2.8729045577   -1.4729078804    0.5265079953
C        0.7542562191   -0.6158288606    2.0674058384
C       -1.2983195396   -0.7637916447   -0.5698852637
O        4.0939109090   -2.1738091035    2.4616301460
O       -0.3888505946    0.1560900485    0.0582536880
F        3.8929735437   -1.9139501229   -0.2391417592
I       -0.5835721569    0.6642248384    3.3317003817
H        1.7471673705   -0.8118848486   -1.1718378121
H        1.9292212927   -1.2324102215    3.7722146326
H       -2.0474400907   -0.1509479033   -1.0739897092
H       -1.7826476353   -1.3978518542    0.1814622653
H       -0.7804342613   -1.3913852213   -1.3047066637
H        3.8439515972   -2.8261551777    3.1344429715
17   
Generated by ForceBalance from scan.xyz: Frame 4 of 24
C        1.7693213921   -0.9121786118   -0.0867914575
C        1.8832277891   -1.1357035005    2.6974229186
C        0.6883474407   -0.4351143753    0.6712419477
C        2.9599669962   -1.5987363018    1.9331256929
C        2.8798096243   -1.4658753720    0.5396852275
C        0.7544244286   -0.6000432144    2.0671681003
C       -1.2888617549   -0.7800957627   -0.5785833301
O        4.0987811843   -2.1317636730    2.5007195725
O       -0.3853041191    0.1470571453    0.0475866333
F        3.9022902181   -1.9109084400   -0.2199820381
I       -0.5920213514    0.6888189269    3.3133260968
H        1.7553246075   -0.8249743645   -1.1692728701
H        1.9331858762   -1.1959714214    3.7797124939
H       -2.0374773071   -0.1730098586   -1.0902349140
H       -1.7746840294   -1.4101657818    0.1751235874
H       -0.7655595245   -1.4110591067   -1.3065838450
H        3.8652809334   -2.9314177541    2.9976636447
17   
Generated by ForceBalance from scan.xyz: Frame 5 of 24
C        1.7775726426   -0.9247562442   -0.0888717687
C        1.8840121458   -1.1167941277    2.6985947864
C        0.6955624675   -0.4389307681    0.6618775309
C        2.9631140541   -1.5869481803    1.9427403892
C        2.8872955051   -1.4689037091    0.5481518584
C        0.7573120787   -0.5871840757    2.0604870131
C       -1.2755223511   -0.7954499339   -0.5947043741
O        4.1017354948   -2.0975638102    2.5366592000
O       -0.3759202975    0.1368879032    0.0296248737
F        3.9132496960   -1.9203637217   -0.2036371840
I       -0.5949812765    0.7130710982    3.2872028085
H        1.7669878591   -0.8469685904   -1.1721035119
H        1.9367923815   -1.1674974865    3.7809776027
H       -2.0215190486   -0.1924613045   -1.1148628909
H       -1.7651527632   -1.4197986289    0.1612648863
H       -0.7479505777   -1.4315896661   -1.3150243399
H        3.9290002155   -3.0035708423    2.8379367903
17   
Generated by ForceBalance from scan.xyz: Frame 6 of 24
C        1.7717748630   -0.9331285069   -0.0717051980
C        1.8634544343   -1.1070865079    2.7170813520
C        0.6889173167   -0.4360949932    0.6711437589
C        2.9450672081   -1.5850411323    1.9710039709
C        2.8768182714   -1.4738454391    0.5754189363
C        0.7427194673   -0.5742931864    2.0710904766
C       -1.2759920909   -0.7928704606   -0.5945750062
O        4.0798202961   -2.0764374398    2.5890547505
O       -0.3765288087    0.1399229715    0.0293179827
F        3.9084979141   -1.9326960594   -0.1661266153
I       -0.6065455826    0.7415402016    3.2812234154
H        1.7671779977   -0.8608766691   -1.1553541656
H        1.9135740897   -1.1527620344    3.7996264934
H       -2.0169447314   -0.1902304001   -1.1222445714
H       -1.7718986111   -1.4108066998    0.1625352497
H       -0.7467949451   -1.4351035654   -1.3082694114
H        4.0072140842   -3.0396568930    2.6833884460
17   
Generated by ForceBalance from scan.xyz: Frame 7 of 24
C        1.7760754369   -0.9470616262   -0.0665563482
C        1.8501145224   -1.1036584570    2.7254616371
C        0.6911784371   -0.4393789281    0.6668305165
C        2.9319642670   -1.5938204962    1.9886978612
C        2.8739599589   -1.4860566800    0.5923159601
C        0.7386241347   -0.5650716580    2.0680439676
C       -1.2731678891   -0.7927280062   -0.6005998821
O        4.0595060324   -2.0697876111    2.6280155500
O       -0.3666529900    0.1391447902    0.0142276698
F        3.9141649288   -1.9537238441   -0.1359249387
I       -0.6113062758    0.7641236503    3.2612864496
H        1.7789447563   -0.8806933952   -1.1505470317
H        1.8935675531   -1.1464275105    3.8082856971
H       -2.0076323275   -0.1898577589   -1.1370838005
H       -1.7763157467   -1.3975749623    0.1622625966
H       -0.7480673777   -1.4479436273   -1.3055338308
H        4.1151341030   -3.0329572582    2.5202710752
17   
Generated by ForceBalance from scan.xyz: Frame 8 of 24
C        1.7892706029   -0.9675265730   -0.0714001063
C        1.8430474959   -1.1112885437    2.7239823334
C        0.7030309912   -0.4489406750    0.6528886870
C        2.9262925267   -1.6106727886    1.9960886964
C        2.8790487578   -1.5059400930    0.5991435235
C        0.7418542629   -0.5660918795    2.0547764842
C       -1.2630699061   -0.7994863796   -0.6120129018
O        4.0411981222   -2.0858327023    2.6513500596
O       -0.3469260070    0.1318534826   -0.0111992745
F        3.9273672864   -1.9858245941   -0.1148764631
I       -0.6064447638    0.7778631596    3.2309886851
H        1.7991800297   -0.9077849134   -1.1557290187
H        1.8770214583   -1.1525941847    3.8071247992
H       -1.9928059204   -0.1972353436   -1.1556884096
H       -1.7709199829   -1.3900260884    0.1588932843
H       -0.7448144685   -1.4688394088   -1.3088620790
H        4.2294629102   -2.9926885766    2.3596910339
17   
Generated by ForceBalance from scan.xyz: Frame 9 of 24
C        1.7852520910   -0.9755869918   -0.0550509659
C        1.8224036979   -1.1122887464    2.7427049437
C        0.6987465678   -0.4464420388    0.6615024344
C        2.9059376805   -1.6211443971    2.0221436415
C        2.8660104715   -1.5175888927    0.6252811525
C        0.7308644261   -0.5599844837    2.0637401975
C       -1.2675914907   -0.7861629569   -0.6062491747
O        4.0042608532   -2.1106040386    2.6867076929
O       -0.3436052096    0.1402694289   -0.0101530333
F        3.9196128801   -2.0133472962   -0.0764601973
I       -0.6136189910    0.7982963135    3.2294196647
H        1.8019970346   -0.9212996865   -1.1395708583
H        1.8470446555   -1.1530284485    3.8260460255
H       -1.9898766347   -0.1808249298   -1.1565048345
H       -1.7834520214   -1.3661910990    0.1673482257
H       -0.7542727506   -1.4659594953   -1.2966998400
H        4.3201822210   -2.9125972831    2.2388323994
17   
Generated by ForceBalance from scan.xyz: Frame 10 of 24
C        1.7986280187   -1.0009227642   -0.0645538895
C        1.8203800403   -1.1259919013    2.7354827149
C        0.7112636042   -0.4612646464    0.6429639724
C        2.9041867185   -1.6442251187    2.0219301291
C        2.8706457128   -1.5466992952    0.6250510028
C        0.7370842032   -0.5707987078    2.0458309481
C       -1.2561116360   -0.7940258445   -0.6258547168
O        3.9837518631   -2.1557146209    2.6929860870
O       -0.3242471265    0.1290899563   -0.0370104277
F        3.9291600375   -2.0580653669   -0.0643075735
I       -0.6084499848    0.7985277173    3.2008718991
H        1.8215058856   -0.9534763257   -1.1492592160
H        1.8359414002   -1.1647665151    3.8189977371
H       -1.9740527395   -0.1867245072   -1.1797071980
H       -1.7761827910   -1.3653084159    0.1514280362
H       -0.7485705668   -1.4823887637   -1.3122022072
H        4.4216733266   -2.8158842066    2.1300981625
17   
Generated by ForceBalance from scan.xyz: Frame 11 of 24
C        1.7999213061   -1.0170264564   -0.0643367999
C        1.8094084178   -1.1391011343    2.7374488456
C        0.7141202815   -0.4682350611    0.6384704817
C        2.8928289502   -1.6645766735    2.0282350614
C        2.8631409828   -1.5707383140    0.6315262137
C        0.7332738378   -0.5782390952    2.0416459465
C       -1.2535177056   -0.7894506278   -0.6328215331
O        3.9542115625   -2.2029094516    2.7019062490
O       -0.3150700014    0.1283341380   -0.0461595699
F        3.9254568781   -2.0919228098   -0.0494076795
I       -0.6005859330    0.8099907971    3.1891484324
H        1.8273810309   -0.9725023079   -1.1490660346
H        1.8198173453   -1.1755910529    3.8210803820
H       -1.9660665749   -0.1783531969   -1.1894926809
H       -1.7788896848   -1.3542320851    0.1456586892
H       -0.7506190321   -1.4840453840   -1.3163597868
H        4.5083597954   -2.6916130631    2.0698660934
17   
Generated by ForceBalance from scan.xyz: Frame 12 of 24
C        1.7957615198   -1.0292806293   -0.0603471916
C        1.8002462472   -1.1525614710    2.7425001046
C        0.7142588518   -0.4707411957    0.6414718678
C        2.8793330581   -1.6877500910    2.0338663884
C        2.8506425523   -1.5960707103    0.6372754254
C        0.7299794516   -0.5830035562    2.0447580206
C       -1.2559490675   -0.7755017496   -0.6298474473
O        3.9224583971   -2.2590837174    2.7068796714
O       -0.3093475554    0.1345825542   -0.0441467553
F        3.9129967706   -2.1230732003   -0.0409420435
I       -0.5914616145    0.8196240569    3.1913606516
H        1.8250590340   -0.9850685048   -1.1450504067
H        1.8093064877   -1.1891832341    3.8261102411
H       -1.9634640242   -0.1584905065   -1.1864271479
H       -1.7857271068   -1.3355730818    0.1490407282
H       -0.7593272271   -1.4745894038   -1.3134105882
H        4.5812022583   -2.5606966313    2.0581344774
17   
Generated by ForceBalance from scan.xyz: Frame 13 of 24
C        1.7886056074   -1.0405080560   -0.0593469836
C        1.7952833660   -1.1673637741    2.7435315182
C        0.7132165531   -0.4735426905    0.6452224522
C        2.8677335353   -1.7121729167    2.0323469413
C        2.8375170577   -1.6219331090    0.6355076250
C        0.7283923334   -0.5882118962    2.0483349449
C       -1.2599715324   -0.7596534700   -0.6255832120
O        3.8948323732   -2.3171910087    2.7026038842
O       -0.3058636287    0.1416736477   -0.0382471196
F        3.8953979575   -2.1515501038   -0.0456613974
I       -0.5775570919    0.8263950883    3.1982839166
H        1.8166575765   -0.9946304792   -1.1440372286
H        1.8068060523   -1.2048481380    3.8270848211
H       -1.9627751680   -0.1357145009   -1.1803838831
H       -1.7937034499   -1.3172696008    0.1523379719
H       -0.7692322193   -1.4610346778   -1.3109972553
H        4.6433321414   -2.4274072745    2.0919376744
17   
Generated by ForceBalance from scan.xyz: Frame 14 of 24
C        1.7854789122   -1.0544949026   -0.0685558011
C        1.7963463821   -1.1809221884    2.7318507085
C        0.7152988328   -0.4792058845    0.6373377096
C        2.8641656547   -1.7331507048    2.0199406300
C        2.8321222410   -1.6455514639    0.6224870291
C        0.7305383366   -0.5950672731    2.0401112750
C       -1.2599928159   -0.7551077972   -0.6319260016
O        3.8794912568   -2.3650331657    2.6888552096
O       -0.3012320969    0.1414770849   -0.0446300209
F        3.8825748981   -2.1769497637   -0.0638821892
I       -0.5639776851    0.8261590542    3.1926615539
H        1.8111283118   -1.0087736712   -1.1533229196
H        1.8101319245   -1.2199326512    3.8152692777
H       -1.9609127931   -0.1273660034   -1.1847385283
H       -1.7947699479   -1.3113362461    0.1462325870
H       -0.7732452913   -1.4575980066   -1.3189874893
H        4.6970990858   -2.2879780093    2.1692191121
17   
Generated by ForceBalance from scan.xyz: Frame 15 of 24
C        1.7751662261   -1.0639236938   -0.0724572538
C        1.7994669230   -1.1957983064    2.7261760578
C        0.7136813504   -0.4813574812    0.6404677809
C        2.8597336491   -1.7547392531    2.0086335569
C        2.8213083609   -1.6666515289    0.6107224666
C        0.7337496896   -0.5997385513    2.0428007007
C       -1.2664160616   -0.7383050251   -0.6251700359
O        3.8674520196   -2.4141190474    2.6702643696
O       -0.3009357102    0.1491431187   -0.0345454525
F        3.8585196971   -2.2009115333   -0.0868543290
I       -0.5441305736    0.8265937625    3.2051574866
H        1.7948747779   -1.0160787004   -1.1572785548
H        1.8189524425   -1.2387259966    3.8093878511
H       -1.9647367478   -0.1030026732   -1.1725252554
H       -1.8025380229   -1.2956451479    0.1512057924
H       -0.7854724286   -1.4395879648   -1.3174019057
H        4.7230598956   -2.1659080675    2.2830339563
17   
Generated by ForceBalance from scan.xyz: Frame 16 of 24
C        1.7648516668   -1.0722207287   -0.0780475960
C        1.8054251491   -1.2102721123    2.7182911247
C        0.7127846917   -0.4827674098    0.6427671661
C        2.8581579823   -1.7749831467    1.9940321558
C        2.8126026054   -1.6845523856    0.5959663712
C        0.7394973826   -0.6036629120    2.0447108127
C       -1.2733543076   -0.7221798801   -0.6167882638
O        3.8652416526   -2.4540100131    2.6446359042
O       -0.3010919761    0.1566859494   -0.0239776925
F        3.8352602724   -2.2214183168   -0.1145354509
I       -0.5214341986    0.8264075187    3.2183841388
H        1.7773715607   -1.0222180002   -1.1628788455
H        1.8302175307   -1.2588495184    3.8011862690
H       -1.9699374305   -0.0797640928   -1.1579326599
H       -1.8096546650   -1.2807638969    0.1585149862
H       -0.7985648708   -1.4220162774   -1.3145734546
H        4.7228334025   -2.0547737642    2.4249249846
17   
Generated by ForceBalance from scan.xyz: Frame 17 of 24
C        1.7565924680   -1.0805119798   -0.0860453973
C        1.8151112895   -1.2245408462    2.7068343051
C        0.7133909169   -0.4859712643    0.6427526191
C        2.8618316613   -1.7926593995    1.9756293906
C        2.8085715520   -1.6989646323    0.5777987194
C        0.7477348905   -0.6090684286    2.0443857657
C       -1.2801522582   -0.7093959639   -0.6082864320
O        3.8762424540   -2.4801950351    2.6118458959
O       -0.3004939056    0.1614341541   -0.0154212550
F        3.8183874055   -2.2357271359   -0.1457594498
I       -0.4948851398    0.8266773195    3.2293109294
H        1.7614839314   -1.0277321992   -1.1707952858
H        1.8449120140   -1.2783019908    3.7894161660
H       -1.9755997673   -0.0604063060   -1.1429399642
H       -1.8158042997   -1.2685683303    0.1670044141
H       -0.8122676393   -1.4083333530   -1.3115075671
H        4.6945511303   -1.9582822965    2.5849029918
17   
Generated by ForceBalance from scan.xyz: Frame 18 of 24
C        1.7349287289   -1.0717167988   -0.0560984718
C        1.8201732433   -1.2411182788    2.7337420612
C        0.7085342574   -0.4680738102    0.6880484716
C        2.8516112796   -1.8182247395    1.9867884741
C        2.7876668909   -1.7088932152    0.5905412539
C        0.7558935457   -0.6036763531    2.0883215699
C       -1.2982868365   -0.6516950753   -0.5482365321
O        3.8779182517   -2.5148169325    2.5967279281
O       -0.3027815695    0.1994872828    0.0470160059
F        3.7800639891   -2.2467359648   -0.1517634762
I       -0.4551457198    0.8400702655    3.2982665238
H        1.7303746105   -1.0082051181   -1.1402789288
H        1.8570434232   -1.3058919143    3.8156645041
H       -1.9868880229    0.0122136962   -1.0732983077
H       -1.8376623262   -1.2093360670    0.2255915895
H       -0.8445478597   -1.3512965075   -1.2599028241
H        4.6192045277   -1.9151008501    2.7788480133
17   
Generated by ForceBalance from scan.xyz: Frame 19 of 24
C        1.7310719229   -1.0751686786   -0.0658849390
C        1.8369158638   -1.2509847311    2.7222020338
C        0.7117505793   -0.4705533855    0.6866404057
C        2.8616676164   -1.8291043170    1.9656753490
C        2.7897554996   -1.7138332730    0.5703392922
C        0.7707774849   -0.6073176254    2.0863697693
C       -1.3056528533   -0.6428735360   -0.5341872743
O        3.9063388772   -2.5156429460    2.5538526000
O       -0.3015498677    0.2026906610    0.0545214238
F        3.7743451892   -2.2483429801   -0.1823952996
I       -0.4264379628    0.8407093314    3.3079767259
H        1.7194587632   -1.0079272314   -1.1497869325
H        1.8781257396   -1.3169430669    3.8041796328
H       -1.9952657891    0.0249359315   -1.0529725610
H       -1.8417852077   -1.1993259537    0.2427693840
H       -0.8605978140   -1.3434124581   -1.2503906558
H        4.5323208294   -1.8849434180    2.9439709333
17   
Generated by ForceBalance from scan.xyz: Frame 20 of 24
C        1.7295091626   -1.0723529119   -0.0757691398
C        1.8556083428   -1.2516773603    2.7100068006
C        0.7153423100   -0.4675615934    0.6836668331
C        2.8755252751   -1.8284050942    1.9451599240
C        2.7950007020   -1.7089987595    0.5505397326
C        0.7857833306   -0.6055271285    2.0823665241
C       -1.3116456876   -0.6411344434   -0.5202309083
O        3.9361323573   -2.5045018069    2.5107342473
O       -0.3030506031    0.2054876419    0.0589407714
F        3.7734240931   -2.2424399842   -0.2102404081
I       -0.3999472722    0.8438219241    3.3152169574
H        1.7106676886   -1.0040347641   -1.1595000133
H        1.8997509758   -1.3175013857    3.7922174544
H       -2.0051816718    0.0254160273   -1.0354419906
H       -1.8420408848   -1.1959586259    0.2618735415
H       -0.8721061014   -1.3433495337   -1.2382381272
H        4.4275329829   -1.9047382944    3.0939989312
17   
Generated by ForceBalance from scan.xyz: Frame 21 of 24
C        1.7227633571   -1.0596082236   -0.0788123044
C        1.8759756141   -1.2463511779    2.7046126190
C        0.7149739340   -0.4563064272    0.6913132132
C        2.8881854114   -1.8220206584    1.9289985198
C        2.7934689251   -1.6976122675    0.5350331531
C        0.8003091599   -0.5977259800    2.0878505706
C       -1.3231431163   -0.6276106584   -0.4930318825
O        3.9616893309   -2.4923900038    2.4673428922
O       -0.3091949143    0.2185108678    0.0770417576
F        3.7640364190   -2.2324712103   -0.2350008804
I       -0.3694431974    0.8509569128    3.3367218111
H        1.6943973850   -0.9886405554   -1.1621757810
H        1.9257762764   -1.3116373901    3.7870363195
H       -2.0213516328    0.0389998739   -1.0019189504
H       -1.8465517589   -1.1828007033    0.2935834096
H       -0.8904115721   -1.3298075979   -1.2152526151
H        4.3145276155   -1.9845856531    3.2148930893
17   
Generated by ForceBalance from scan.xyz: Frame 22 of 24
C        1.7202796225   -1.0490472106   -0.0845733592
C        1.8935865982   -1.2285028579    2.6973240472
C        0.7133829263   -0.4487914047    0.6902826040
C        2.9022640015   -1.8026863512    1.9163544016
C        2.7966154645   -1.6820219088    0.5221301880
C        0.8094458242   -0.5874444678    2.0854295064
C       -1.3309814818   -0.6314798578   -0.4812625997
O        3.9864606566   -2.4627980661    2.4357676679
O       -0.3176307365    0.2205736738    0.0805462746
F        3.7634241242   -2.2198611764   -0.2513977208
I       -0.3589976827    0.8573160064    3.3411488053
H        1.6849133795   -0.9812528053   -1.1679356557
H        1.9483619317   -1.2873233527    3.7802892386
H       -2.0357710499    0.0305998029   -0.9870917707
H       -1.8467868722   -1.1878732881    0.3095819173
H       -0.8996186221   -1.3330629731   -1.2049741350
H        4.1980852542   -2.0918575570    3.3069657385
17   
Generated by ForceBalance from scan.xyz: Frame 23 of 24
C        1.7181865317   -1.0380116212   -0.0867922195
C        1.9084734796   -1.2056041414    2.6940524739
C        0.7107292518   -0.4410578268    0.6908098283
C        2.9160470409   -1.7769372492    1.9100134429
C        2.7997013390   -1.6645472936    0.5152993120
C        0.8151186386   -0.5758673451    2.0849655664
C       -1.3378906707   -0.6378449734   -0.4713772612
O        4.0096826632   -2.4252932071    2.4167358859
O       -0.3268488781    0.2211359456    0.0835717965
F        3.7639125175   -2.2055592313   -0.2600393400
I       -0.3552116117    0.8655064386    3.3425924160
H        1.6764753930   -0.9758732130   -1.1702830266
H        1.9694022632   -1.2550918061    3.7774886752
H       -2.0484604815    0.0189444413   -0.9760864185
H       -1.8474406440   -1.1949513427    0.3230700834
H       -0.9059944853   -1.3391787828   -1.1950863517
H        4.0870666448   -2.2265155772    3.3633950412
17   
Generated by ForceBalance from scan.xyz: Frame 24 of 24
C        1.7259390753   -1.0301164697   -0.0932381986
C        1.9273675857   -1.1757653109    2.6889617012
C        0.7151154201   -0.4383881924    0.6842036250
C        2.9360259651   -1.7444638317    1.9045478277
C        2.8129105653   -1.6458813475    0.5091370935
C        0.8242295425   -0.5631548519    2.0787528273
C       -1.3360651212   -0.6585663699   -0.4701120783
O        4.0389230474   -2.3771391373    2.4083131555
O       -0.3298250754    0.2115242973    0.0758684028
F        3.7770957136   -2.1892953890   -0.2649336292
I       -0.3599100632    0.8729826989    3.3296501383
H        1.6792145454   -0.9774076358   -1.1770402094
H        1.9947009562   -1.2135885069    3.7726549026
H       -2.0533501617   -0.0104549764   -0.9765846333
H       -1.8388945518   -1.2146477234    0.3293447362
H       -0.9013112159   -1.3611428510   -1.1909344554
H        3.9947931465   -2.3724828613    3.3777193282
