19   

C        2.1670145927   -0.4885412496   -0.0248273296
C        0.8667354553   -0.3835873407    0.4526166703
C        3.1485074158   -1.0993513337    0.7575362613
C        0.5593294276   -0.8885943454    1.7143614155
C        3.8455319889   -3.0606800503    3.9269586948
C        6.1165538828   -2.6573367004    3.1789177900
C        2.8595678527   -1.6261686417    2.0394869149
C        1.5354982797   -1.5023338787    2.5111865296
C        3.9436541638   -2.2531196598    2.8176715337
N        5.2559536655   -2.0428233336    2.4045458545
O        1.1466506994   -1.9387553401    3.7453333381
S        5.4111205525   -3.5708128087    4.4988710347
H        2.4214733285   -0.0965101663   -1.0030152056
H        0.1007723269    0.0909035152   -0.1511277918
H        4.1511212197   -1.1633196741    0.3488873660
H       -0.4569953981   -0.7933599703    2.0757303245
H        2.9212893455   -3.3667561258    4.3938494021
H        7.1866668640   -2.6074551114    3.0149805952
H        0.2151384633   -1.7095244907    3.9017895602
19   

C        2.1435907227   -0.5681170678   -0.0585178255
C        0.8650172897   -0.3924039020    0.4603220418
C        3.1269646476   -1.1929265979    0.7111498180
C        0.5807650697   -0.8386821067    1.7508694778
C        3.8234143831   -3.2201098987    3.7912772639
C        6.1011834735   -2.5353344288    3.3018558443
C        2.8553042259   -1.6653321477    2.0135402712
C        1.5598704631   -1.4652098420    2.5330394600
C        3.9427949656   -2.2888855373    2.7904260251
N        5.2532108141   -1.9092502586    2.5217701331
O        1.2180323633   -1.8460236833    3.8001110333
S        5.3794296557   -3.6590856046    4.4425805207
H        2.3792541063   -0.2179938004   -1.0570865562
H        0.0985695280    0.0939223657   -0.1332947169
H        4.1182593861   -1.3137683958    0.2872666972
H       -0.4160762136   -0.6866825758    2.1455139106
H        2.8837128312   -3.6343819730    4.1292065445
H        7.1713029589   -2.3731022497    3.2465918884
H        0.3158411290   -1.5491294275    4.0063663999
19   

C        2.1118020955   -0.6268928507   -0.0850633011
C        0.8597491700   -0.3830799635    0.4738549042
C        3.0969989992   -1.2689288449    0.6687575801
C        0.6036284677   -0.7768462618    1.7885327287
C        3.8160935608   -3.3498588555    3.6511859381
C        6.0543149036   -2.4236795009    3.4473949454
C        2.8463203669   -1.6940259874    1.9875803346
C        1.5852664876   -1.4203775326    2.5526846005
C        3.9396097116   -2.3151981969    2.7622582456
N        5.2205586247   -1.7880727791    2.6590529346
O        1.2896801014   -1.7620560527    3.8427280120
S        5.3477297071   -3.7277973075    4.3922755008
H        2.3254031310   -0.3135640366   -1.1006649856
H        0.0927633766    0.1172005652   -0.1073326454
H        4.0740994864   -1.4396438685    0.2291166688
H       -0.3703783319   -0.5714800809    2.2147312674
H        2.8812767240   -3.8505986556    3.8648124713
H        7.1044698927   -2.1640638732    3.5130941245
H        0.4178159365   -1.4116922371    4.0907489715
19   

C        2.0836902515   -0.6758064841   -0.1004875476
C        0.8617547400   -0.3716952860    0.4973485277
C        3.0776882925   -1.3228730522    0.6380612829
C        0.6440835686   -0.7094026251    1.8353350717
C        3.8548257438   -3.4622087305    3.4858525679
C        6.0046372089   -2.3321284860    3.6158306391
C        2.8593909276   -1.6939537230    1.9760559761
C        1.6346546934   -1.3581410415    2.5827173849
C        3.9601996289   -2.3158469467    2.7465701108
N        5.1844305678   -1.6688644254    2.8359197104
O        1.3888256317   -1.6580749337    3.8933387594
S        5.3482148109   -3.8072631006    4.3157660061
H        2.2667879788   -0.4040788600   -1.1338765962
H        0.0885925774    0.1324321138   -0.0722110969
H        4.0350396557   -1.5387022511    0.1757129642
H       -0.3052742697   -0.4580935755    2.2914606736
H        2.9497035849   -4.0509658698    3.5522946254
H        7.0149286492   -1.9953938841    3.8169708979
H        0.5452606269   -1.2667304449    4.1749836289
19   

C        2.0516155381   -0.7300240501   -0.1249510176
C        0.8617486618   -0.3592392857    0.5012934463
C        3.0523861941   -1.3743115558    0.6074292732
C        0.6811962126   -0.6294876197    1.8605881512
C        3.9141915321   -3.5735378134    3.2569027434
C        5.9224126716   -2.3051703735    3.7862454986
C        2.8696401018   -1.6710326223    1.9676633929
C        1.6780546159   -1.2756505601    2.6013596980
C        3.9665434874   -2.3096999314    2.7380638445
N        5.1076812493   -1.5869788673    3.0506410465
O        1.4734539622   -1.5233391243    3.9296509765
S        5.3606367820   -3.9307699818    4.1616964157
H        2.2035540864   -0.5129523384   -1.1761709771
H        0.0837783345    0.1424216249   -0.0638847456
H        3.9844608233   -1.6451806330    0.1233730406
H       -0.2438735388   -0.3304570136    2.3373477483
H        3.0718604479   -4.2401878485    3.1301761807
H        6.8743108614   -1.9254019274    4.1386643290
H        0.6554396607   -1.0941337270    4.2301095372
19   

C        1.9971519724   -0.8307548804   -0.1428234740
C        0.8440692906   -0.3838257905    0.5031795561
C        3.0098616404   -1.4538186144    0.5916967766
C        0.7088130519   -0.5621784660    1.8830688172
C        4.0408607893   -3.6378934985    2.9839241676
C        5.8406341354   -2.3042894681    3.9369304417
C        2.8781835428   -1.6409143705    1.9766401346
C        1.7169939043   -1.1868164688    2.6268477622
C        3.9672859016   -2.2933378156    2.7492391525
N        4.9962522580   -1.5378159956    3.2890694381
O        1.5526935566   -1.3594049206    3.9724074428
S        5.4534101507   -4.0218746901    3.9305656542
H        2.1097763767   -0.6910988864   -1.2119868254
H        0.0571867979    0.1014913961   -0.0639331667
H        3.9100829756   -1.7908799304    0.0895309949
H       -0.1910604552   -0.2119715161    2.3730213239
H        3.3076141370   -4.3514360973    2.6329627861
H        6.7172320502   -1.9097085408    4.4373336147
H        0.7585971818   -0.8914308051    4.2782459497
19   

C        1.9280887039   -0.9459639272   -0.1465793120
C        0.8173998559   -0.4163521461    0.5105530774
C        2.9494889179   -1.5520760599    0.5898654490
C        0.7301055922   -0.5009218163    1.9029726796
C        4.2057669545   -3.6350087433    2.7251941623
C        5.7568024997   -2.3159959813    4.0592354331
C        2.8753465032   -1.6291669692    1.9902385441
C        1.7468023918   -1.1080356186    2.6498544149
C        3.9591757243   -2.2904790903    2.7581762694
N        4.8570645726   -1.5413047855    3.5026292095
O        1.6183010297   -1.2002354952    4.0071407035
S        5.5971879722   -4.0315693673    3.6976700310
H        2.0001729139   -0.8848411513   -1.2265795041
H        0.0238998425    0.0563996648   -0.0579595403
H        3.8136548026   -1.9577293138    0.0753233264
H       -0.1411967478   -0.0943497643    2.4009666918
H        3.6068974338   -4.3446413430    2.1704266668
H        6.5478348516   -1.9275390741    4.6900083193
H        0.8526093450   -0.6861031724    4.3103010075
19   

C        1.8594095326   -1.0479874740   -0.1418184311
C        0.7927333989   -0.4435829047    0.5219155659
C        2.8860294994   -1.6479869011    0.5918234613
C        0.7532839891   -0.4501914232    1.9184284993
C        4.3649567687   -3.5874912839    2.5342965124
C        5.6663139048   -2.3423817473    4.1705227848
C        2.8662811032   -1.6427521757    1.9977907942
C        1.7750061765   -1.0507923570    2.6642081135
C        3.9567111300   -2.2996638409    2.7525972833
N        4.7180897646   -1.5891791959    3.6682852435
O        1.6769075428   -1.0713283607    4.0270005002
S        5.7297162763   -3.9854983053    3.5432650719
H        1.8935174045   -1.0493517339   -1.2254236311
H       -0.0049220892    0.0250485073   -0.0441973560
H        3.7150000124   -2.1094195306    0.0666319225
H       -0.0872036045    0.0105812803    2.4221469422
H        3.8928722523   -4.2602138490    1.8311231547
H        6.3673534102   -1.9769918398    4.9118166748
H        0.9403439853   -0.5129023603    4.3227845848
19   

C        1.7952580766   -1.1384064550   -0.1359375488
C        0.7723107843   -0.4642263579    0.5264194226
C        2.8224331326   -1.7376549567    0.5966862639
C        0.7776736265   -0.4008210291    1.9209757274
C        4.4972013624   -3.5237971279    2.3966439115
C        5.5694707552   -2.4037981247    4.2698745811
C        2.8506293493   -1.6674839402    2.0033414641
C        1.7998531746   -1.0001818740    2.6679779281
C        3.9562470365   -2.3126776686    2.7405260045
N        4.5880996783   -1.6747531811    3.7975188343
O        1.7244642517   -0.9485127102    4.0313555988
S        5.8277103590   -3.9355743867    3.4450139538
H        1.7962082575   -1.1933460212   -1.2187052369
H       -0.0261424253    0.0044677685   -0.0385302203
H        3.6173511624   -2.2459890847    0.0627255854
H       -0.0309843886    0.1139315808    2.4245325256
H        4.1347621802   -4.1427688406    1.5873255571
H        6.1830424013   -2.0827739923    5.1035023442
H        1.0096018534   -0.3551231874    4.3107106751
19   

C        1.7318328175   -1.2157267875   -0.1149182615
C        0.7459188731   -0.4881683791    0.5430241855
C        2.7645983202   -1.8071187376    0.6152341531
C        0.7961833334   -0.3622891068    1.9309336579
C        4.6334815179   -3.4271483702    2.2959458326
C        5.4842058514   -2.4757217850    4.3629458934
C        2.8386540050   -1.6842870509    2.0199404236
C        1.8242885417   -0.9527560100    2.6779826754
C        3.9683649781   -2.3099472105    2.7363910260
N        4.4733464975   -1.7747401751    3.9121727520
O        1.7722005427   -0.8251289196    4.0373557592
S        5.9294328615   -3.8610427176    3.3781452109
H        1.7013005051   -1.3170927591   -1.1939212298
H       -0.0573547825   -0.0248921621   -0.0195771798
H        3.5285603901   -2.3479238769    0.0694356274
H        0.0157681812    0.1968014253    2.4317894011
H        4.3773628384   -3.9809083593    1.4036281571
H        6.0107027840   -2.2175220743    5.2743064002
H        1.0635991630   -0.2157855698    4.2964901426
19   

C        1.6719270440   -1.2958780959   -0.0962381658
C        0.7195503486   -0.5206349712    0.5520673367
C        2.7137318702   -1.8726776549    0.6319016406
C        0.8156643729   -0.3300261166    1.9283901874
C        4.7709561416   -3.3078974879    2.2146138287
C        5.3904284250   -2.5887286154    4.4473125852
C        2.8346265341   -1.6949446439    2.0310778532
C        1.8538211163   -0.9038042587    2.6755777406
C        3.9803939545   -2.3091725007    2.7348592227
N        4.3552206230   -1.9157162088    4.0113073160
O        1.8352316754   -0.6840051368    4.0238382183
S        6.0240611464   -3.7833680792    3.3294088587
H        1.6087480144   -1.4466846973   -1.1680465363
H       -0.0913403376   -0.0685003609   -0.0086938562
H        3.4417901451   -2.4480272610    0.0749828933
H        0.0627239258    0.2715887471    2.4220087157
H        4.6360072815   -3.7687411670    1.2472359115
H        5.8247178702   -2.4196852132    5.4256993234
H        1.1170307110   -0.0779145291    4.2624191028
19   

C        1.6188221098   -1.3746885096   -0.0698341450
C        0.6996166048   -0.5525249548    0.5659364096
C        2.6724576736   -1.9334011767    0.6549729821
C        0.8426653253   -0.2952911859    1.9262832479
C        4.9221541475   -3.1372738215    2.1610290144
C        5.2636926668   -2.7553281249    4.5308187025
C        2.8437008402   -1.6895366984    2.0406820030
C        1.8946340882   -0.8476209916    2.6708981702
C        3.9840958599   -2.3153326925    2.7462179541
N        4.2054504137   -2.1154235975    4.1015566806
O        1.9316184421   -0.5238152379    3.9975693947
S        6.1143215636   -3.6826263692    3.3102950528
H        1.5171510383   -1.5819729874   -1.1291883781
H       -0.1214056334   -0.1153336865    0.0080605851
H        3.3539697020   -2.5646600682    0.1016630759
H        0.1179702319    0.3481144134    2.4093863153
H        4.9448567300   -3.4274080389    1.1217841751
H        5.5898050790   -2.7150220300    5.5635053911
H        1.1942563042    0.0616310049    4.2286365549
19   

C        1.5756693418   -1.4584705574   -0.0467084678
C        0.6884184423   -0.5879337014    0.5723782497
C        2.6400407695   -1.9991234578    0.6765185910
C        0.8749944983   -0.2620311429    1.9135718963
C        5.0438368196   -2.9391164552    2.1382305933
C        5.1401729538   -2.9387344316    4.5624604117
C        2.8524463632   -1.6844867359    2.0402538617
C        1.9398169773   -0.7938169836    2.6542735456
C        3.9818756343   -2.3175588396    2.7538159092
N        4.0602336826   -2.3312744354    4.1388685593
O        2.0525031171   -0.3816225704    3.9519118134
S        6.1826458670   -3.5675023316    3.2989962210
H        1.4366727484   -1.7221848552   -1.0891296290
H       -0.1415124643   -0.1659507932    0.0159898303
H        3.2882199606   -2.6899353684    0.1531618970
H        0.1792992397    0.4228695988    2.3820147291
H        5.1845042503   -3.0197567256    1.0704645493
H        5.3725057985   -3.0464460531    5.6154772016
H        1.3048795950    0.1846635921    4.1977917892
19   

C        2.0376332910   -0.4603423327    0.0386758086
C        0.7799043734   -0.3354723929    0.6190414403
C        3.0744209555   -1.0692490790    0.7484405181
C        0.5689177612   -0.8157545016    1.9111413207
C        5.3266803359   -1.9331072330    2.5160697238
C        4.9375979290   -3.6935795778    4.1441805692
C        2.8792801933   -1.5699764579    2.0541494782
C        1.6001353876   -1.4262038984    2.6375555159
C        4.0058221477   -2.2274820184    2.7466454074
N        3.8026419027   -3.2410719359    3.6713969207
O        1.3245997347   -1.8231279221    3.9156178297
S        6.3768820551   -2.9280507798    3.4887304010
H        2.2097956950   -0.0912305023   -0.9660970601
H       -0.0295405552    0.1347265517    0.0712231167
H        4.0355514565   -1.1704881541    0.2585546392
H       -0.4118274676   -0.7014004034    2.3556061333
H        5.6744823391   -1.1697929470    1.8342608714
H        4.9857686730   -4.4856141558    4.8822892240
H        0.3782851330   -1.7294040149    4.1060625311
19   

C        2.0238920345   -0.5515082621   -0.0100130941
C        0.7818260189   -0.3666864498    0.5922442844
C        3.0620965860   -1.1521334025    0.7057619337
C        0.5875279827   -0.7762702244    1.9125656282
C        5.3007609260   -1.8001324571    2.6558277848
C        4.9480862259   -3.7768997731    4.0274281529
C        2.8761670080   -1.5861203729    2.0330091111
C        1.6211216055   -1.3768272286    2.6427084933
C        3.9996448211   -2.2186634689    2.7538679696
N        3.8134622705   -3.3577751392    3.5227665322
O        1.3867133228   -1.7104330986    3.9468979736
S        6.3599572737   -2.8252334161    3.5865061486
H        2.1824380756   -0.2338770904   -1.0344050388
H       -0.0278998257    0.0972630126    0.0395555555
H        4.0176143928   -1.3000668008    0.2153439831
H       -0.3784428588   -0.6138965666    2.3740923119
H        5.6203208920   -0.9399121113    2.0836485181
H        5.0133233187   -4.6514734311    4.6640801382
H        0.4461974534   -1.6070339762    4.1611730068
19   

C        1.9988897426   -0.6495990074   -0.0468836132
C        0.7808604666   -0.3907999605    0.5800450003
C        3.0375113591   -1.2490929915    0.6700817803
C        0.6102782629   -0.7250657613    1.9257793548
C        5.2499031359   -1.6931761610    2.8212464834
C        4.9785719801   -3.8553819533    3.9039668515
C        2.8697709514   -1.6077844189    2.0193097981
C        1.6449220078   -1.3236910473    2.6551628275
C        3.9906741597   -2.2258010665    2.7621589508
N        3.8499678210   -3.4689838448    3.3602466551
O        1.4504775850   -1.5966001541    3.9799086877
S        6.3261721300   -2.7408847383    3.7060899145
H        2.1384581556   -0.3889046475   -1.0899210863
H       -0.0283938585    0.0724996194    0.0261361042
H        3.9788822295   -1.4527107202    0.1717850248
H       -0.3357346515   -0.5067008804    2.4051932227
H        5.5268229628   -0.7458555003    2.3787854184
H        5.0777206175   -4.7980022241    4.4294378335
H        0.5204446632   -1.4606238675    4.2215769967
19   

C        1.9667044728   -0.7587956265   -0.0876237402
C        0.7778550842   -0.4198753038    0.5586536203
C        3.0063926177   -1.3526307519    0.6330744274
C        0.6362213158   -0.6711112858    1.9262691967
C        5.1635012025   -1.5977507225    3.0336842654
C        5.0291030634   -3.9134790015    3.7715615800
C        2.8668449360   -1.6203856579    2.0047082277
C        1.6725214247   -1.2635770587    2.6578070826
C        3.9855171922   -2.2360653805    2.7606188658
N        3.9215553936   -3.5605277351    3.1647263900
O        1.5137304334   -1.4699816160    3.9992276013
S        6.2594084911   -2.6586996115    3.8777213000
H        2.0827845668   -0.5645276167   -1.1478677417
H       -0.0316660994    0.0393660438    0.0017717745
H        3.9268581329   -1.6193447402    0.1254355243
H       -0.2878086885   -0.3952488898    2.4187487685
H        5.3708348523   -0.5717224575    2.7611631237
H        5.1803902168   -4.9091764184    4.1718178468
H        0.5978142364   -1.2865971345    4.2637808872
19   

C        1.9275082953   -0.8780793237   -0.1229700584
C        0.7746316844   -0.4545060460    0.5389342355
C        2.9746924169   -1.4541173760    0.6015329206
C        0.6739882656   -0.6093038668    1.9246060044
C        5.0344579495   -1.5357150453    3.3047939686
C        5.0908798337   -3.9460574893    3.6409224521
C        2.8824623781   -1.6076483833    1.9937801459
C        1.7184311544   -1.1834384250    2.6589806755
C        3.9972624715   -2.2333371132    2.7517472240
N        4.0352778011   -3.6058348908    2.9408208167
O        1.5982854154   -1.3109330872    4.0141990921
S        6.1371764478   -2.6129728192    4.1186716739
H        2.0094434589   -0.7649070574   -1.1980404194
H       -0.0403220129   -0.0085992740   -0.0208440205
H        3.8655550589   -1.7925701269    0.0838533582
H       -0.2252754001   -0.2758637607    2.4272133437
H        5.1359027601   -0.4604153216    3.2464355157
H        5.3068801088   -4.9750964340    3.9034940986
H        0.6982165491   -1.0799981844    4.2964602571
19   

C        1.8838545713   -0.9847822001   -0.1380542210
C        0.7670263362   -0.4820999817    0.5294001614
C        2.9396715446   -1.5386842244    0.5909528950
C        0.7089832760   -0.5418630971    1.9245469156
C        4.8738694329   -1.5518516335    3.5671670416
C        5.1600350752   -3.9671406149    3.4865393711
C        2.9000273873   -1.5809635377    1.9938930511
C        1.7627685086   -1.0938961785    2.6626528570
C        4.0094630124   -2.2203129983    2.7454646706
N        4.1693332474   -3.5971346177    2.7104604217
O        1.6754603548   -1.1411062659    4.0256389852
S        5.9829567276   -2.6593009764    4.3300300587
H        1.9305861006   -0.9526737384   -1.2206690739
H       -0.0547797250   -0.0531032859   -0.0335578132
H        3.7990807610   -1.9460538381    0.0695024270
H       -0.1663567366   -0.1548908465    2.4310101544
H        4.8452995502   -0.4823095964    3.7261278834
H        5.4519641728   -5.0045253213    3.6011896950
H        0.7899773148   -0.8668172843    4.3160290636
19   

C        1.8660392073   -1.0522269879   -0.1394390217
C        0.7800214554   -0.4777604048    0.5190309872
C        2.9191018704   -1.5970038667    0.5997834387
C        0.7495929128   -0.4593713904    1.9155953446
C        4.7292070458   -1.6237035857    3.7642679031
C        5.2583946446   -3.9562334574    3.3227353963
C        2.9133908422   -1.5578393019    2.0047734382
C        1.8007401122   -1.0028698868    2.6641801094
C        4.0132735737   -2.2063006718    2.7544126991
N        4.3103826039   -3.5406842167    2.5168128188
O        1.7265261546   -0.9791844715    4.0287516295
S        5.8687971627   -2.7504031241    4.4497711969
H        1.8910405564   -1.0842826407   -1.2227679273
H       -0.0402248478   -0.0557995793   -0.0514661509
H        3.7524241765   -2.0623090983    0.0840947366
H       -0.1046038550   -0.0200080397    2.4153890707
H        4.5785047089   -0.6046683887    4.0946477038
H        5.6384573165   -4.9708701999    3.2982152491
H        0.8542009863   -0.6585913617    4.3122046049
19   

C        1.8461819374   -1.1071244557   -0.1407368042
C        0.7901466423   -0.4632150861    0.4992913921
C        2.8880035769   -1.6523435084    0.6131957148
C        0.7793335817   -0.3757863528    1.8925825569
C        4.6017015533   -1.7064230224    3.8999388498
C        5.3778184248   -3.8938504425    3.1775530061
C        2.9038884267   -1.5510405945    2.0175953122
C        1.8188613394   -0.9201350578    2.6572641841
C        3.9978860273   -2.1954652065    2.7720167351
N        4.4428247271   -3.4490842495    2.3721973756
O        1.7458594681   -0.8283529217    4.0190911183
S        5.8003834212   -2.8185795451    4.5034588413
H        1.8578649862   -1.1920253705   -1.2214321901
H       -0.0218701370   -0.0405149234   -0.0823271005
H        3.6977635525   -2.1658365868    0.1054883801
H       -0.0530848571    0.1178356841    2.3783052715
H        4.3495383284   -0.7572067930    4.3534380067
H        5.8564191512   -4.8560197944    3.0371459349
H        0.8896285386   -0.4528246590    4.2841635860
19   

C        1.8195878928   -1.1736567376   -0.1341845528
C        0.8020294081   -0.4579340497    0.4880184960
C        2.8455446938   -1.7322196987    0.6308114515
C        0.8151874532   -0.3112309947    1.8750238463
C        4.4936303583   -1.8275442948    4.0007186908
C        5.5079850298   -3.8231205307    3.0597681355
C        2.8852784093   -1.5821581813    2.0340514310
C        1.8383270413   -0.8688231825    2.6530040658
C        3.9770513763   -2.2214147237    2.7919360845
N        4.5700323002   -3.3641459487    2.2665726251
O        1.7673130281   -0.7126254666    4.0086966278
S        5.7637876131   -2.8972868460    4.5302719615
H        1.8159787971   -1.3018824799   -1.2106641300
H        0.0022101118   -0.0238278534   -0.1020470567
H        3.6252020725   -2.2908347962    0.1238315327
H        0.0115999451    0.2402386991    2.3469018462
H        4.1598227711   -0.9597173583    4.5523567943
H        6.0859192609   -4.7093907311    2.8251493942
H        0.9362081453   -0.2708934517    4.2511300832
19   

C        1.7713204948   -1.2485041678   -0.1249632329
C        0.7974200328   -0.4626255892    0.4780341459
C        2.7841096432   -1.8174723651    0.6490178680
C        0.8428445869   -0.2552715237    1.8551567818
C        4.3732441884   -1.9765833110    4.0880629026
C        5.6230576510   -3.7283441067    2.9704545642
C        2.8557750506   -1.6159827465    2.0485475311
C        1.8528328412   -0.8222540825    2.6444380713
C        3.9477419450   -2.2509626867    2.8090124676
N        4.6850494027   -3.2543645711    2.1872594916
O        1.7967097477   -0.5883410176    3.9886547880
S        5.7117218416   -2.9894737810    4.5580782455
H        1.7461832813   -1.4216704507   -1.1948559953
H        0.0079483974   -0.0190506315   -0.1188949684
H        3.5266385660   -2.4231618360    0.1409712058
H        0.0729490394    0.3540490407    2.3118438264
H        3.9540739951   -1.2198639436    4.7342555009
H        6.2973107469   -4.5178728418    2.6597580914
H        1.0029057251   -0.0704525600    4.2040772420
19   

C        1.6904796095   -1.3422052523   -0.1042462345
C        0.7646589693   -0.4925130622    0.4856444038
C        2.7059806747   -1.9085723500    0.6676018689
C        0.8634544568   -0.2161264829    1.8470696690
C        4.2373419843   -2.1651728284    4.1486918174
C        5.7281400174   -3.6102694679    2.9005255204
C        2.8292847410   -1.6439767760    2.0548688362
C        1.8779748236   -0.7775463467    2.6351328430
C        3.9262528502   -2.2756264943    2.8111664720
N        4.8000085815   -3.1118295343    2.1214577181
O        1.8832738122   -0.4405957977    3.9576894283
S        5.6381270297   -3.1102761468    4.5766708605
H        1.6265643493   -1.5668363215   -1.1629044060
H       -0.0264851161   -0.0497239719   -0.1096549231
H        3.4055394804   -2.5657764866    0.1629721558
H        0.1336705644    0.4485460541    2.2922884804
H        3.7008354113   -1.5738622706    4.8741251011
H        6.4958745924   -4.2827151422    2.5359881207
H        1.1472308817    0.1643649575    4.1501101709
