27

C      0.88785   -0.66578   -0.90170
C      1.46363    1.47372    0.25213
C     -0.34720   -1.04095    1.22041
C      1.80583   -0.00101    0.14227
C     -0.34378   -1.33102   -0.28470
C     -2.86788   -1.66673   -0.53455
C      3.65854    4.29441    0.95946
C     -1.62825   -0.90566   -1.01532
C      2.31367    3.64311    0.69993
O      1.15475   -0.67140   -2.08527
O      0.33044    1.91189    0.14699
O      2.55129    2.21940    0.50502
S      1.41626   -0.84234    1.72655
H     -0.89118   -0.12066    1.44476
H     -0.76719   -1.85840    1.80877
H      2.85505   -0.14349   -0.11589
H     -0.18858   -2.40841   -0.43404
H     -2.74655   -2.74793   -0.66938
H     -3.75467   -1.35764   -1.09718
H     -3.07177   -1.48311    0.52601
H      4.13105    3.87455    1.85215
H      4.33234    4.15256    0.10955
H      3.52078    5.36927    1.11478
H     -1.76535    0.17225   -0.87520
H     -1.47672   -1.07030   -2.08683
H      1.82735    4.03757   -0.19607
H      1.62538    3.76364    1.54097
