35

C     -2.21470   -3.26499    5.52224
C     -1.96807   -4.41218    4.77774
C     -2.43945   -2.02387    4.90770
C     -2.10848   -3.10182    2.70632
C     -1.92306   -4.33042    3.38024
C     -2.35919   -1.97675    3.50766
C     -2.77971   -0.81064    5.79362
C      1.22746   -2.76306   -0.56669
C      1.22895   -1.30651   -1.02887
C     -0.87524   -2.16300   -1.55261
C     -0.27134   -3.04872   -0.43859
C     -3.41222   -6.30460    2.02123
C     -2.00979   -2.97430    1.20375
O     -1.79355   -0.29307    6.36789
O     -4.00755   -0.55576    5.83743
O     -0.92136   -5.75773    1.29255
O     -1.32703   -6.91950    3.51803
O      0.13167   -1.21586   -1.95258
O     -0.66240   -2.63745    0.86766
S     -1.71791   -5.89707    2.52824
Cl    -2.57020   -0.40412    2.73038
H     -2.23707   -3.31498    6.60759
H     -1.80140   -5.36975    5.25972
H      1.66641   -3.40722   -1.33607
H      1.73728   -2.93345    0.38343
H      1.06980   -0.62876   -0.17948
H      2.13475   -1.00702   -1.56446
H     -1.15492   -2.75100   -2.43573
H     -1.76088   -1.62904   -1.18895
H     -0.51284   -4.10971   -0.56779
H     -3.35850   -7.26512    1.50368
H     -4.02916   -6.37785    2.91771
H     -3.78845   -5.52740    1.35465
H     -2.27964   -3.91136    0.70976
H     -2.69526   -2.19517    0.85469
