27

C      0.56544   -0.25403   -0.75437
C      1.24744    1.99085    0.18431
C     -0.67235   -0.53348    1.37931
C      1.47812    0.48795    0.24163
C     -0.60999   -0.97140   -0.08655
C     -3.07730   -1.60505   -0.33288
C     -1.94981    3.73338   -0.11712
C     -1.91393   -0.76649   -0.87158
C     -0.44272    3.66767    0.04386
O      0.79275   -0.27012   -1.94651
O      2.11981    2.82962    0.24896
O     -0.07372    2.26229    0.07065
S      1.05898   -0.17607    1.89997
H     -1.28135    0.36613    1.49636
H     -1.05865   -1.31333    2.03772
H      2.52665    0.29737    0.01357
H     -0.33881   -2.03648   -0.11694
H     -2.83666   -2.67422   -0.35400
H     -3.97757   -1.45419   -0.93721
H     -3.32619   -1.33962    0.70036
H     -2.26401    3.25150   -1.04765
H     -2.45520    3.24088    0.71913
H     -2.27186    4.77914   -0.14511
H     -2.17198    0.29880   -0.84483
H     -1.72024   -1.01644   -1.91934
H     -0.10457    4.13071    0.97490
H      0.08315    4.14740   -0.78563
