35

C     -0.39521    0.02413   -0.54182
C     -1.28648    0.54181   -1.18580
C      1.75684   -1.17288   -0.42016
C      0.60396   -0.60823    1.62138
C      0.65462   -0.58311    0.21874
C      2.78720   -1.77448    0.30723
C      1.61792   -1.20126    2.37776
C      2.72212   -1.78535    1.71798
C      3.45673   -3.87100    2.91238
C     -2.36196    1.16479   -1.96098
C      5.11396   -1.32357   -0.60327
C      2.20317    0.11383    4.46604
C      3.82531   -2.44721    2.53822
C      3.96565   -2.34031   -0.46233
C      1.51229   -1.13676    3.89021
O      3.00404   -4.22915    3.98214
O      3.67395   -4.74453    1.89152
H      1.80397   -1.16041   -1.50592
H     -0.24653   -0.15716    2.12588
H     -2.67801    2.10895   -1.50437
H     -2.03499    1.37688   -2.98442
H     -3.23741    0.50824   -2.01589
H      4.77292   -0.42520   -1.12778
H      5.94978   -1.75315   -1.16620
H      5.49299   -1.00548    0.37394
H      3.27067    0.13247    4.22096
H      2.10750    0.14398    5.55673
H      1.75889    1.02692    4.05667
H      3.99707   -1.91004    3.46994
H      4.76335   -2.46564    1.98339
H      4.33041   -3.25901    0.00230
H      3.62461   -2.62454   -1.46330
H      0.45268   -1.11029    4.16543
H      1.92265   -2.03641    4.35334
H      3.36894   -5.61678    2.20868
