32   
Generated by ForceBalance from scan.xyz: Frame 1 of 11
C        2.9415365550   -7.4253491312    5.5148215452
C        1.6741197827   -7.0070856301    5.9428721696
C        3.4638333809   -6.9502111096    4.3069873936
C        0.9326638843   -6.1180942897    5.1689566862
C        2.7319914432   -6.0532523851    3.5275047725
C        1.4629350371   -5.6218109320    3.9600663450
C        0.6606036643   -4.7049437379    3.1591487745
C        1.1507948665   -3.8714368494    1.8870971631
C        1.0062041305   -0.1981358123    0.5696305284
C        1.3766089855   -0.5723618597    2.0105893686
C        0.7508450966   -1.4529957701   -0.2750991935
C        0.3007026977   -1.4568328113    2.6600370610
C       -0.3107907587   -2.3574066509    0.3704786381
C        0.0371245976   -2.7014463095    1.8167150081
N       -0.2751111529   -3.9375173616    3.6342436205
O        2.1202596455   -4.0746351711    1.2002234485
O       -0.9270824851   -3.6261123343    2.3334635136
H        3.5147643493   -8.1252277515    6.1174223196
H        1.2640296162   -7.3846737135    6.8756603892
H        4.4438977604   -7.2792435572    3.9722372785
H       -0.0593856188   -5.8030023010    5.4786355329
H        3.1352610791   -5.6802256592    2.5927135173
H        1.8027892708    0.4044633587    0.1186675136
H        0.1027899758    0.4273974454    0.5800124890
H        2.3366250128   -1.1041269003    2.0132175262
H        1.5153601262    0.3286928007    2.6180702027
H        0.4223123296   -1.1759320017   -1.2829479903
H        1.6837661608   -2.0159578216   -0.3861565915
H        0.5824030620   -1.7298216099    3.6794942443
H       -0.6478417301   -0.9086776455    2.7284734374
H       -1.2810271730   -1.8442263435    0.3830160901
H       -0.4423791130   -3.2791056649   -0.2050334123
32   
Generated by ForceBalance from scan.xyz: Frame 2 of 11
C        2.9400881711   -7.4151534620    5.4929976242
C        1.6372566620   -7.0716860765    5.8799070970
C        3.4962732063   -6.8563514296    4.3381326987
C        0.8960319186   -6.1741550365    5.1162758300
C        2.7628924272   -5.9496121383    3.5701653606
C        1.4573950249   -5.5948020290    3.9595807405
C        0.6546219004   -4.6646857986    3.1683666198
C        1.1212623130   -3.8459259512    1.9303439205
C        1.0260250319   -0.2371672040    0.5490533697
C        1.4357811078   -0.6062755277    1.9809657068
C        0.7205918781   -1.4931596641   -0.2774706314
C        0.3604001393   -1.4617479714    2.6660803523
C       -0.3374801446   -2.3749239865    0.4045058569
C        0.0391855251   -2.7157683951    1.8461386833
N       -0.3683752759   -4.0200167968    3.6417474350
O        2.1210254228   -4.0087530050    1.2670021886
O       -1.0062694680   -3.5283588165    2.4212240000
H        3.5145550122   -8.1214672927    6.0868012438
H        1.2005064683   -7.5131728648    6.7716923861
H        4.5040388323   -7.1266120667    4.0343619174
H       -0.1203404485   -5.9142030901    5.3960356282
H        3.1931305740   -5.5149991581    2.6752809041
H        1.8188702296    0.3462320496    0.0674477839
H        0.1354555746    0.4057215299    0.5829701969
H        2.3849397990   -1.1561392261    1.9582464818
H        1.6099184415    0.2972306827    2.5757188074
H        0.3651299498   -1.2161349913   -1.2761875054
H        1.6394235148   -2.0729648057   -0.4139700500
H        0.6614582058   -1.7366631012    3.6808758302
H       -0.5751534694   -0.8955670261    2.7528945591
H       -1.2985468529   -1.8464991428    0.4394769846
H       -0.4996414144   -3.2985615611   -0.1600952940
32   
Generated by ForceBalance from scan.xyz: Frame 3 of 11
C        2.9090151094   -7.4604402762    5.4598637249
C        1.5837318954   -7.1618092113    5.8059369050
C        3.5026370201   -6.8241892792    4.3661014176
C        0.8587603262   -6.2338789634    5.0633422176
C        2.7849587218   -5.8865726634    3.6194167636
C        1.4565459127   -5.5791990335    3.9670914714
C        0.6765999653   -4.6114806708    3.1922321744
C        1.1487160370   -3.7801714385    2.0046109544
C        1.0256665092   -0.2616482127    0.4902805696
C        1.4701264573   -0.5878281952    1.9225092646
C        0.6988860906   -1.5407575318   -0.2917378995
C        0.4076297104   -1.4169386283    2.6564212051
C       -0.3461160963   -2.4000622224    0.4373382629
C        0.0573161769   -2.6989761166    1.8821222537
N       -0.4240981855   -4.0808103333    3.6367867023
O        2.1871566884   -3.8826156712    1.3808651031
O       -1.0257341062   -3.4163088888    2.5249345480
H        3.4709954159   -8.1898098937    6.0375304464
H        1.1168802301   -7.6609296191    6.6509312366
H        4.5281312875   -7.0572698874    4.0921173483
H       -0.1721416485   -6.0064699632    5.3163682584
H        3.2453977462   -5.3939128294    2.7710292908
H        1.8078540397    0.3046377531   -0.0275738841
H        0.1374043324    0.3843914634    0.5257838483
H        2.4170629331   -1.1399639892    1.8944003560
H        1.6577063156    0.3331369773    2.4856932159
H        0.3210785787   -1.2917162468   -1.2896202031
H        1.6133960340   -2.1260708504   -0.4315696673
H        0.7295959835   -1.6685678164    3.6717360914
H       -0.5237773996   -0.8456834153    2.7469081437
H       -1.3061137718   -1.8701313727    0.4756240706
H       -0.5201583475   -3.3402500828   -0.0956272687
32   
Generated by ForceBalance from scan.xyz: Frame 4 of 11
C        2.8845565167   -7.5343891953    5.4114204864
C        1.5421687199   -7.2742484227    5.7204173297
C        3.5122801438   -6.8181285674    4.3890118924
C        0.8349722378   -6.3059772077    5.0126313762
C        2.8115674717   -5.8409189920    3.6768571224
C        1.4657898676   -5.5737836795    3.9867982821
C        0.7109351176   -4.5564515811    3.2458872137
C        1.1939173468   -3.6992250162    2.1097943078
C        1.0053759685   -0.2907765595    0.4186167902
C        1.4796873415   -0.5414329722    1.8565865053
C        0.6761191710   -1.6093043316   -0.2941881107
C        0.4380185463   -1.3408886225    2.6498951351
C       -0.3495514075   -2.4392396987    0.4934743327
C        0.0824281709   -2.6653382397    1.9448923563
N       -0.4527815633   -4.1307604140    3.6452176614
O        2.2572625813   -3.7522761587    1.5153018268
O       -1.0081446914   -3.3087904255    2.6553207339
H        3.4330215844   -8.2940367755    5.9624434634
H        1.0481660621   -7.8331610902    6.5108674088
H        4.5515949110   -7.0190507560    4.1427804209
H       -0.2070338336   -6.1061562788    5.2419647286
H        3.2988318330   -5.2884203572    2.8821087714
H        1.7732857374    0.2549530811   -0.1408064007
H        0.1122935661    0.3493355033    0.4379139704
H        2.4305791350   -1.0858103434    1.8383403553
H        1.6666629803    0.4080430718    2.3705536989
H        0.2778026582   -1.4120494455   -1.2956771313
H        1.5929404537   -2.1933455510   -0.4217999434
H        0.7800772997   -1.5442361456    3.6699838488
H       -0.4958162320   -0.7727409221    2.7299846082
H       -1.3127374380   -1.9149420282    0.5238352016
H       -0.5257153781   -3.4057846061    0.0105632566
32   
Generated by ForceBalance from scan.xyz: Frame 5 of 11
C        2.8772808409   -7.6484388458    5.3465434497
C        1.5371970279   -7.3854393903    5.6630707992
C        3.5194038187   -6.8901822232    4.3645912259
C        0.8472254106   -6.3725338363    5.0022733027
C        2.8346898237   -5.8697243927    3.6982515475
C        1.4908647398   -5.6013654695    4.0138958699
C        0.7570080665   -4.5335951882    3.3202305814
C        1.2616246231   -3.6154693148    2.2589503490
C        0.9549935555   -0.3390102705    0.3581000556
C        1.4412364464   -0.4753001667    1.8074776361
C        0.6732351669   -1.7131321452   -0.2644711021
C        0.4341840134   -1.2601310528    2.6584184937
C       -0.3269765421   -2.5187747372    0.5779977746
C        0.1176883615   -2.6381452678    2.0413752566
N       -0.4605849979   -4.2111051039    3.6515086445
O        2.3554707203   -3.6011487057    1.7152409209
O       -0.9644582354   -3.2409803036    2.8009558430
H        3.4133261139   -8.4409439468    5.8623551690
H        1.0323474376   -7.9741608680    6.4245846438
H        4.5576886910   -7.0910845729    4.1138141344
H       -0.1913993891   -6.1677319125    5.2419209339
H        3.3338530790   -5.2831790231    2.9360448196
H        1.7016879306    0.1959000183   -0.2391023990
H        0.0388237480    0.2676386815    0.3373213598
H        2.4121119002   -0.9820497300    1.8214828399
H        1.5898246013    0.5129643661    2.2568563109
H        0.2708932100   -1.5984963147   -1.2771652922
H        1.6097501791   -2.2728460607   -0.3514350025
H        0.7930525134   -1.3911314280    3.6848426891
H       -0.5168172615   -0.7183554280    2.7160930981
H       -1.3037127846   -2.0198554484    0.5810024628
H       -0.4790699178   -3.5194232554    0.1604695068
32   
Generated by ForceBalance from scan.xyz: Frame 6 of 11
C        2.8328091551   -7.7659606225    5.2181891764
C        1.4847579155   -7.5201924718    5.5138459650
C        3.5101950171   -6.9268447647    4.3302778969
C        0.8221374836   -6.4455063762    4.9266007112
C        2.8527821948   -5.8455448297    3.7361335773
C        1.5007034526   -5.5958040627    4.0303666734
C        0.7968204759   -4.4621073866    3.4131379015
C        1.3361386927   -3.4674109984    2.4480236665
C        0.9071931347   -0.4033656075    0.2427487249
C        1.3944288198   -0.3626811197    1.6975940215
C        0.6874576084   -1.8471202114   -0.2294306522
C        0.4244980793   -1.0999323524    2.6314846545
C       -0.2853718896   -2.5947227071    0.6932688450
C        0.1647805372   -2.5426881824    2.1639979820
N       -0.4533231919   -4.2073720195    3.6746032147
O        2.4609724372   -3.3897790074    1.9759134846
O       -0.8989492397   -3.0998875334    2.9835161347
H        3.3476200156   -8.6056360849    5.6779725452
H        0.9523391402   -8.1696819692    6.2038245621
H        4.5554132670   -7.1118114094    4.0966213060
H       -0.2216187984   -6.2528189491    5.1535577784
H        3.3801644646   -5.1960920361    3.0474782191
H        1.6321690485    0.0969358123   -0.4087097184
H       -0.0347802430    0.1563177057    0.1572162271
H        2.3868506730   -0.8201593988    1.7632449637
H        1.4947806761    0.6736431994    2.0390787766
H        0.2867311019   -1.8594866228   -1.2492067810
H        1.6472315214   -2.3730933410   -0.2549608283
H        0.7941306692   -1.1107707176    3.6622838789
H       -0.5471305151   -0.5921182279    2.6434403981
H       -1.2780528490   -2.1312645745    0.6502337848
H       -0.4045088944   -3.6386378692    0.3844941714
32   
Generated by ForceBalance from scan.xyz: Frame 7 of 11
C        2.7689854029   -7.8540089600    5.0825712556
C        1.4193793831   -7.6109393951    5.3734321925
C        3.4763651866   -6.9558952538    4.2797358577
C        0.7846368528   -6.4805219971    4.8654194043
C        2.8463161705   -5.8198227264    3.7634613836
C        1.4920286911   -5.5736943967    4.0511436388
C        0.8163582834   -4.3830979267    3.5165405478
C        1.3950728970   -3.3112911361    2.6570470839
C        0.8797851687   -0.4910207824    0.1617248998
C        1.3434716413   -0.2721206890    1.6082301129
C        0.7272289484   -1.9855679485   -0.1525400911
C        0.4001197998   -0.9522870480    2.6116745907
C       -0.2329755613   -2.6637657215    0.8334455357
C        0.2009554050   -2.4402291592    2.2967591143
N       -0.4595247018   -4.1840542266    3.6848714287
O        2.5471475199   -3.1752053964    2.2743127436
O       -0.8416977653   -2.9580714947    3.1663584301
H        3.2625595490   -8.7361591160    5.4821910573
H        0.8648375325   -8.3047811166    5.9998563514
H        4.5235425979   -7.1374764569    4.0523261748
H       -0.2592782035   -6.2874901975    5.0914547193
H        3.3974805172   -5.1234252017    3.1426165706
H        1.5927618829   -0.0328698505   -0.5326075910
H       -0.0838262988    0.0137571944    0.0052991838
H        2.3549966201   -0.6716063760    1.7312443076
H        1.3896670788    0.7985440953    1.8365117419
H        0.3473673512   -2.1267887583   -1.1706015224
H        1.7080844687   -2.4708209927   -0.1072397828
H        0.7688603295   -0.8428264945    3.6367555020
H       -0.5903708801   -0.4827228319    2.5744509840
H       -1.2381378958   -2.2374806221    0.7375362897
H       -0.3182184670   -3.7375806806    0.6355830751
32   
Generated by ForceBalance from scan.xyz: Frame 8 of 11
C        2.7285384204   -7.8872069479    4.9770238285
C        1.3754960892   -7.6529433116    5.2590184576
C        3.4563422666   -6.9495473629    4.2397504233
C        0.7573021143   -6.4903162167    4.8064684833
C        2.8426831481   -5.7822636215    3.7772808727
C        1.4842049944   -5.5454980787    4.0543731743
C        0.8230802548   -4.3231319066    3.5839740651
C        1.4255908098   -3.1963769162    2.7901797725
C        0.8676938870   -0.5506349474    0.1020717450
C        1.3210766695   -0.2240504514    1.5314089904
C        0.7417608737   -2.0659905015   -0.1068643529
C        0.3911673738   -0.8546483457    2.5797501625
C       -0.2136003011   -2.6872714728    0.9201078370
C        0.2161759113   -2.3598525123    2.3637016664
N       -0.4672970631   -4.1656919646    3.6297858758
O        2.5928053136   -3.0266958931    2.4818793949
O       -0.7909763403   -2.8484666294    3.2860463663
H        3.2103980588   -8.7933619061    5.3350593457
H        0.8071200383   -8.3768668405    5.8370629532
H        4.5065973925   -7.1251263124    4.0222668891
H       -0.2879616713   -6.2992295659    5.0283464091
H        3.4091723813   -5.0544290460    3.2082818535
H        1.5755625773   -0.1290978569   -0.6202081760
H       -0.1041376732   -0.0758871727   -0.0925466860
H        2.3402702433   -0.5928603139    1.6834525282
H        1.3444486131    0.8604549309    1.6857815208
H        0.3730473796   -2.2856831433   -1.1150444092
H        1.7308152614   -2.5301929746   -0.0218637521
H        0.7617122595   -0.6714690281    3.5934538424
H       -0.6068209398   -0.4033563998    2.5161112677
H       -1.2224764368   -2.2768687849    0.7971789933
H       -0.2891998873   -3.7722320267    0.7930596996
32   
Generated by ForceBalance from scan.xyz: Frame 9 of 11
C        2.7093927013   -7.9153120358    4.8990113222
C        1.3424614212   -7.7067416627    5.1299049794
C        3.4643356492   -6.9270390679    4.2611679787
C        0.7374972047   -6.5197781250    4.7259099476
C        2.8642391838   -5.7356869966    3.8459502616
C        1.4911942795   -5.5248698226    4.0702257932
C        0.8399750296   -4.2787653947    3.6599538173
C        1.4655935218   -3.1107190564    2.9059728337
C        0.8447845447   -0.6124350950    0.0664644354
C        1.3155919775   -0.2110416297    1.4706076114
C        0.7267665006   -2.1371494090   -0.0621019478
C        0.4065387274   -0.7966640035    2.5627035404
C       -0.2089927834   -2.7121493906    1.0097162677
C        0.2392614749   -2.3107223173    2.4252282348
N       -0.4522014954   -4.1558970306    3.5812314783
O        2.6396662230   -2.9213369482    2.6533880261
O       -0.7131104107   -2.7618969235    3.4207237649
H        3.1811408150   -8.8402233394    5.2207568596
H        0.7536658798   -8.4693762724    5.6326963146
H        4.5253070169   -7.0829307544    4.0849535564
H       -0.3174999769   -6.3452146239    4.9129111880
H        3.4508313644   -4.9703002166    3.3514492515
H        1.5386651871   -0.2230316534   -0.6868944742
H       -0.1336749998   -0.1556905304   -0.1376042396
H        2.3400933447   -0.5641256589    1.6262285816
H        1.3332508997    0.8800218749    1.5696117756
H        0.3473417866   -2.4108987937   -1.0528749648
H        1.7209807556   -2.5898036153    0.0322485703
H        0.7911288386   -0.5604442856    3.5599941553
H       -0.5956602582   -0.3556166279    2.4922398445
H       -1.2226267072   -2.3145000907    0.8813421080
H       -0.2798334649   -3.8016895375    0.9340555192
32   
Generated by ForceBalance from scan.xyz: Frame 10 of 11
C        2.7038499796   -7.9386150911    4.8439382631
C        1.3254368975   -7.7576650745    5.0232272513
C        3.4784835350   -6.9119193592    4.2949673974
C        0.7272959104   -6.5559659365    4.6542801362
C        2.8867394565   -5.7057464742    3.9147121825
C        1.5011876337   -5.5234619948    4.0850818871
C        0.8499403797   -4.2677041190    3.7190620415
C        1.4958107403   -3.0560944060    2.9865434716
C        0.8139359492   -0.6540267086    0.0352696418
C        1.3120126877   -0.2129059467    1.4177492057
C        0.6839006870   -2.1810297448   -0.0417900973
C        0.4190570761   -0.7618225189    2.5417440248
C       -0.2339504799   -2.7194933778    1.0651291008
C        0.2456896578   -2.2778990449    2.4517298158
N       -0.4258870313   -4.1616632342    3.4988503830
O        2.6735012871   -2.8409158239    2.8056261370
O       -0.6167643503   -2.7123491761    3.5251906391
H        3.1712767863   -8.8745873106    5.1388280361
H        0.7241130272   -8.5510315644    5.4590529781
H        4.5479750334   -7.0506698702    4.1615658657
H       -0.3360915207   -6.3961322095    4.8044777988
H        3.4859022473   -4.9099364777    3.4874889475
H        1.4959227036   -0.2929545568   -0.7428223076
H       -0.1655166171   -0.1978235238   -0.1650476869
H        2.3374318543   -0.5672016219    1.5665013526
H        1.3380674952    0.8804961233    1.4835434490
H        0.2873062538   -2.4840974615   -1.0171038644
H        1.6778038495   -2.6365771576    0.0495289616
H        0.8208586533   -0.4967244849    3.5248530665
H       -0.5826106476   -0.3189082227    2.4738886846
H       -1.2487261507   -2.3212746676    0.9425910543
H       -0.3119373476   -3.8093677688    1.0182276511
32   
Generated by ForceBalance from scan.xyz: Frame 11 of 11
C        2.7000223101   -7.9620138799    4.8449931192
C        1.3101680931   -7.8066860579    4.9379054771
C        3.4953673611   -6.9030986136    4.3937308495
C        0.7184610093   -6.5980191194    4.5801860374
C        2.9104886874   -5.6905195700    4.0260198230
C        1.5131247185   -5.5334284086    4.1067255333
C        0.8703635480   -4.2729948094    3.7548070430
C        1.5470475096   -3.0326585643    3.0079541001
C        0.7757845100   -0.6566905433    0.0053450846
C        1.3225524066   -0.2128778051    1.3682402152
C        0.6108297996   -2.1809265553   -0.0498062768
C        0.4489173700   -0.7340752234    2.5201295468
C       -0.2833283139   -2.6950749391    1.0893657460
C        0.2514738694   -2.2462449521    2.4466470654
N       -0.3715900791   -4.1570495517    3.3877798825
O        2.7227413551   -2.7960933943    2.8865479050
O       -0.4820806598   -2.6881948814    3.5950257203
H        3.1609290370   -8.9037155146    5.1318120910
H        0.6941606565   -8.6259441360    5.2987983966
H        4.5734072641   -7.0229535051    4.3279046016
H       -0.3546660938   -6.4562650050    4.6674602525
H        3.5229766049   -4.8687867798    3.6722031166
H        1.4422769089   -0.3191499137   -0.7964589686
H       -0.1990552997   -0.1813633092   -0.1715732436
H        2.3438835538   -0.5883554460    1.4929810404
H        1.3745809940    0.8801864701    1.4226687738
H        0.1804173524   -2.4865141917   -1.0097782978
H        1.5976223154   -2.6563889147    0.0178407951
H        0.8797876347   -0.4665613483    3.4901063681
H       -0.5464567616   -0.2739032746    2.4719847693
H       -1.2955019261   -2.2819361309    0.9908236857
H       -0.3803453284   -3.7823757042    1.0494932063
