27

C     -2.20466    1.22650   -1.82808
C     -2.05372    2.18595   -0.81961
C     -1.32215    0.14648   -1.90288
C     -1.02982    2.07427    0.12692
C     -0.30006    0.04532   -0.96061
C     -0.15589    0.99456    0.05349
C      1.42009   -1.30136    0.03069
C      1.37333   -0.40437    1.26052
C      0.62505   -1.03605    2.45193
C     -0.84150   -1.37012    2.21970
N      0.65382   -1.00882   -1.00118
N      2.27160   -2.32328    0.01875
O      0.89864    0.89991    0.93615
O     -0.90028   -2.33403    1.15912
H     -3.00367    1.31899   -2.55633
H     -2.73753    3.02742   -0.76680
H     -1.42747   -0.60254   -2.68433
H     -0.89540    2.81238    0.91150
H      2.41234   -0.24498    1.56611
H      0.70816   -0.32077    3.27554
H      1.15433   -1.94557    2.75921
H     -1.25513   -1.78337    3.14725
H     -1.41282   -0.47043    1.96207
H      0.65243   -1.61062   -1.82092
H      2.28836   -3.01281   -0.72590
H      2.83812   -2.52410    0.83444
H     -1.82106   -2.61705    1.04379
