27

C     -2.18538    1.48774   -1.65283
C     -1.87029    2.40308   -0.64130
C     -1.42469    0.32641   -1.80618
C     -0.80221    2.16661    0.23050
C     -0.35762    0.10067   -0.93832
C     -0.04991    1.00642    0.07911
C      1.27846   -1.43535   -0.09037
C      1.40576   -0.56743    1.15453
C      0.67819   -1.14845    2.38394
C     -0.82703   -1.32752    2.24772
N      0.47884   -1.04291   -1.06202
N      2.01851   -2.53725   -0.17792
O      1.04604    0.78530    0.88538
O     -1.05464   -2.25531    1.17775
H     -3.01764    1.67734   -2.32270
H     -2.45958    3.30766   -0.52753
H     -1.65788   -0.38958   -2.59089
H     -0.54105    2.86875    1.01615
H      2.47368   -0.52070    1.39046
H      0.88873   -0.46479    3.21168
H      1.13119   -2.11364    2.63884
H     -1.21778   -1.71879    3.19452
H     -1.31944   -0.36904    2.04509
H      0.36129   -1.62203   -1.88964
H      1.91506   -3.20721   -0.93336
H      2.61483   -2.81323    0.59335
H     -2.00515   -2.44136    1.12142
