24   

C       -1.2781338568   -1.2659357934    2.3558982402
C       -3.7704649525    0.3022880341    3.2429990023
C       -4.9904586694    0.8868078555    1.2460867111
C       -4.9035441929    0.6000863305    4.0100538899
C       -6.1162766179    1.1835535083    2.0224740059
C       -3.7937011450    0.4228059300    1.8364152359
C       -6.0854766303    1.0382909794    3.4100907521
C       -2.6854717471    0.1432730852    0.9320187222
C       -0.4559268997   -0.7175770289    0.1276015844
C       -1.5263417131   -0.5549163862    1.1402471041
C       -1.0324561551    0.8666849922   -3.0389159316
N       -1.0334167727   -1.8567832035    3.3295625025
N       -0.3204888337   -0.2232648581   -1.0864953610
O       -1.2756928613    0.6523630056   -1.6485679410
Cl      -7.4929699343    1.4058294481    4.3761374499
H       -2.8886304104    0.0053580752    3.7917381666
H       -5.0602634900    1.0115528547    0.1713311237
H       -4.8640930332    0.4952648327    5.0881818332
H       -7.0266493700    1.5292513102    1.5467675518
H       -2.8809219218    0.4903962686   -0.0686529521
H        0.3705345616   -1.3538494789    0.4251933047
H       -1.8512181595    1.4481178362   -3.4719841666
H       -0.9637283052   -0.0906567005   -3.5652365058
H       -0.0962264648    1.4162968369   -3.1748883723
24   

C       -1.4370505403   -1.3674286072    2.3135911452
C       -3.6799361809    0.5025466716    3.2273298184
C       -5.0665872739    0.7147059799    1.2621347233
C       -4.7930799618    0.7732125056    4.0322174639
C       -6.1729449082    0.9859045592    2.0754934947
C       -3.7981109251    0.4577746500    1.8240668906
C       -6.0477927247    1.0141385572    3.4665687687
C       -2.7027396075    0.1672812213    0.9032968785
C       -0.5344297235   -0.8381982426    0.1035020608
C       -1.6012822411   -0.6175782986    1.1064087115
C       -0.9013560425    0.9824964701   -2.9645150534
N       -1.2691813352   -1.9827311186    3.2881987117
N       -0.3377559969   -0.3005009599   -1.0828502464
O       -1.1973880491    0.6953279994   -1.5976846016
Cl      -7.4312330782    1.3494866512    4.4780150089
H       -2.7288244688    0.3545987760    3.7228712940
H       -5.2027365132    0.6943088418    0.1867023485
H       -4.6827215054    0.8004742065    5.1101122475
H       -7.1416146725    1.1739992571    1.6273371728
H       -2.9001450059    0.5056854222   -0.1014659185
H        0.2248736511   -1.5604323150    0.3830328796
H       -1.6611159068    1.6539561638   -3.3742024747
H       -0.8919519320    0.0601610666   -3.5540304942
H        0.0776620565    1.4647878286   -3.0420558101
24   

C       -1.5991356881   -1.4130356212    2.2555264575
C       -3.6268549436    0.6896183810    3.1728111731
C       -5.1322617909    0.5678907268    1.2889344638
C       -4.7156451445    0.9246428049    4.0206964239
C       -6.2155476904    0.8044213988    2.1435724024
C       -3.8174139897    0.5104993856    1.7909041406
C       -6.0178712224    0.9845287587    3.5157022014
C       -2.7281872320    0.2210183677    0.8545898188
C       -0.6435331473   -0.9400528426    0.0486619273
C       -1.6954988140   -0.6509689387    1.0481759948
C       -0.7882326129    1.0453832327   -2.9354846578
N       -1.4895822871   -2.0363204925    3.2332351301
N       -0.3925503219   -0.3866111777   -1.1196718473
O       -1.1579362297    0.6991889669   -1.6006907221
Cl      -7.3721608521    1.2766828697    4.5786805890
H       -2.6321796380    0.6612572843    3.6027762273
H       -5.3177566415    0.4207902893    0.2309041862
H       -4.5506781129    1.0609554511    5.0831809064
H       -7.2220870742    0.8447641963    1.7438792603
H       -2.9196158737    0.5711523434   -0.1482330438
H        0.0483626373   -1.7316677112    0.3148024821
H       -1.4819900476    1.7935404154   -3.3290273718
H       -0.8201342370    0.1616286497   -3.5806497297
H        0.2245829811    1.4591406077   -2.9480124447
24   

C       -1.7518908553   -1.4519600992    2.1933336282
C       -3.5937308081    0.8741211074    3.1105007438
C       -5.1726508497    0.4069260850    1.3454396928
C       -4.6544890821    1.0786840736    4.0006071081
C       -6.2292762222    0.6134750320    2.2405872376
C       -3.8387049712    0.5525955059    1.7658020581
C       -5.9805549857    0.9541284908    3.5741051150
C       -2.7520809865    0.2687134559    0.8132435211
C       -0.7571607271   -1.0257603997   -0.0111795378
C       -1.7896336607   -0.6794248021    0.9890873290
C       -0.6707235106    1.1059928513   -2.8953715033
N       -1.6921790590   -2.0864195608    3.1680852895
N       -0.4551392825   -0.4583195563   -1.1602557693
O       -1.1274372421    0.7024076239   -1.6043886965
Cl      -7.3010479726    1.2098816153    4.6877782252
H       -2.5748346008    0.9683286209    3.4697465436
H       -5.3909424958    0.1284951776    0.3206157791
H       -4.4496260860    1.3308663752    5.0345338592
H       -7.2535814629    0.5035588192    1.9041733476
H       -2.9304424051    0.6459128274   -0.1827614408
H       -0.1317643807   -1.8762354434    0.2372132219
H       -1.2939911399    1.9230894747   -3.2692479517
H       -0.7284134659    0.2687178753   -3.5981167048
H        0.3663357329    1.4496766789   -2.8352071172
24   

C       -1.9064552681   -1.5585780613    2.0808449836
C       -3.5779650994    1.0390710684    3.0225233193
C       -5.1808993591    0.2010525089    1.4263857924
C       -4.6077802366    1.2362347806    3.9500044072
C       -6.2077313983    0.3995259635    2.3573963521
C       -3.8562014732    0.5427831302    1.7410110205
C       -5.9319121555    0.9239269383    3.6246637695
C       -2.7725416628    0.2719534532    0.7684737499
C       -0.8528965828   -1.1059745945   -0.0954962541
C       -1.8775702890   -0.7419811384    0.9056471864
C       -0.5605128387    1.1794762697   -2.8450262306
N       -1.9046091773   -2.2349460600    3.0288228277
N       -0.4972863013   -0.5024173130   -1.2101578308
O       -1.0895740710    0.7193054205   -1.6015124933
Cl      -7.2150543468    1.1732692505    4.7825842713
H       -2.5558533263    1.2725849001    3.2994445935
H       -5.4141079091   -0.2211796014    0.4554376016
H       -4.3803658011    1.6287912474    4.9342074504
H       -7.2284537733    0.1405196467    2.1015270647
H       -2.9162727714    0.7251322014   -0.2013485310
H       -0.2861367475   -2.0050609222    0.1201215460
H       -1.1225776974    2.0538212452   -3.1848867200
H       -0.6364366310    0.3945635631   -3.6041570023
H        0.4907047427    1.4583255220   -2.7247655645
24   

C       -2.1254355448   -1.7787413336    1.9040758518
C       -3.6097717103    1.2638002981    2.9019943085
C       -5.1495685352   -0.0083291454    1.5500893830
C       -4.6310384443    1.5135369343    3.8265902601
C       -6.1683166619    0.2432857916    2.4769985217
C       -3.8589542731    0.5002980384    1.7545949253
C       -5.9190986142    1.0069414315    3.6225058972
C       -2.7809228899    0.2383431729    0.7674248840
C       -0.8697146632   -1.1465563059   -0.1158554468
C       -1.9584923745   -0.8398663736    0.8366322714
C       -0.4845342122    1.2011771130   -2.8020512973
N       -2.2379955587   -2.5588347266    2.7613364547
N       -0.4638323991   -0.5048652611   -1.1915560750
O       -1.0908875492    0.6869356590   -1.6165704280
Cl      -7.1914175613    1.3206555432    4.7767144040
H       -2.6165053110    1.6608554825    3.0790605040
H       -5.3598256823   -0.6059865090    0.6702101186
H       -4.4262994987    2.1025340490    4.7129397403
H       -7.1614643771   -0.1577129981    2.3118088458
H       -2.6925991158    0.9817209887   -0.0099484762
H       -0.3055665124   -2.0481225769    0.0962719074
H       -0.9863670967    2.1251763939   -3.1026192631
H       -0.5678609195    0.4728129094   -3.6145553824
H        0.5734452323    1.4155946579   -2.6221527366
24   

C       -2.3063119731   -1.9825931881    1.6969346996
C       -3.6717551082    1.4761738656    2.7343954078
C       -5.0763208709   -0.1945997034    1.7163771697
C       -4.6954996750    1.7836829789    3.6387587637
C       -6.0987417016    0.1147392367    2.6213248210
C       -3.8383306949    0.4617330580    1.7819738871
C       -5.9162880242    1.1028800654    3.5939861569
C       -2.7806753832    0.1955036753    0.7805720432
C       -0.8901401612   -1.1814817724   -0.1501979245
C       -2.0252426290   -0.9344989748    0.7637023620
C       -0.4536931262    1.2974077108   -2.7065799555
N       -2.5170791301   -2.8521911116    2.4422385627
N       -0.4522241132   -0.4806249412   -1.1750478781
O       -1.1127351618    0.6970002618   -1.5916091269
Cl      -7.1909632154    1.4861283109    4.7243323422
H       -2.7365055966    2.0225679724    2.7816085721
H       -5.2405973391   -0.9579868767    0.9639043107
H       -4.5464887408    2.5571993519    4.3830372325
H       -7.0433783949   -0.4140365479    2.5709431034
H       -2.4321781945    1.0721400649    0.2547324842
H       -0.3299630214   -2.0915036091    0.0344539702
H       -0.9050229648    2.2697441778   -2.9228689797
H       -0.5509427786    0.6571383880   -3.5885399964
H        0.6087533889    1.4428803042   -2.4870857170
24   

C       -2.4040594145   -2.0905852496    1.5690706278
C       -3.7329970722    1.6025709562    2.5981910145
C       -4.9901181546   -0.3179667533    1.8742243134
C       -4.7551934438    1.9314171725    3.4966962593
C       -6.0107871352    0.0125293264    2.7735576921
C       -3.8186970429    0.4536530014    1.7981605649
C       -5.9005997304    1.1364956674    3.5973325639
C       -2.7702458919    0.1739658063    0.8026811958
C       -0.9662608898   -1.2431529534   -0.2355173175
C       -2.0825399778   -0.9979280298    0.7024905639
C       -0.3866831261    1.3836333664   -2.6097759805
N       -2.6545751744   -2.9976023199    2.2551714780
N       -0.4946409562   -0.5007038384   -1.2152873102
O       -1.0914612245    0.7353588419   -1.5509511211
Cl      -7.1731980540    1.5466603491    4.7205361425
H       -2.8596593574    2.2416808764    2.5327000108
H       -5.1095473242   -1.1859577057    1.2351583581
H       -4.6640951154    2.8115958099    4.1223934482
H       -6.8989148909   -0.6057364772    2.8329393417
H       -2.3566176752    1.0568516538    0.3384434767
H       -0.4541777128   -2.1915734446   -0.1157113344
H       -0.7796710965    2.3943712097   -2.7507930322
H       -0.5100708605    0.8218873315   -3.5405857379
H        0.6798088227    1.4502092847   -2.3723442873
24   

C       -2.4674497887   -2.1954155548    1.4683336451
C       -3.8028991885    1.6722975852    2.4542660015
C       -4.9153170383   -0.4207628781    2.0429124787
C       -4.8094834189    2.0285659351    3.3595864146
C       -5.9198478388   -0.0618974810    2.9496688364
C       -3.8191535004    0.4288226513    1.8019796723
C       -5.8739374644    1.1625565339    3.6207874153
C       -2.7753754639    0.1255000407    0.8199558773
C       -1.0705518927   -1.3174803114   -0.3452200489
C       -2.1478895431   -1.0738024070    0.6391497175
C       -0.3382566521    1.4421319601   -2.5168289132
N       -2.7180185492   -3.1270488784    2.1207378196
N       -0.5806546470   -0.5442237998   -1.2919601033
O       -1.1077136979    0.7433193313   -1.5381584677
Cl      -7.1273930961    1.6073705741    4.7522905072
H       -2.9935127224    2.3694369508    2.2688572464
H       -5.0068951988   -1.3671524131    1.5225725466
H       -4.7687165612    2.9859238500    3.8658989341
H       -6.7475299480   -0.7374338110    3.1319736570
H       -2.3362525399    1.0043680289    0.3731544385
H       -0.6050007070   -2.2957185576   -0.2951831757
H       -0.6819283788    2.4779516216   -2.5867012017
H       -0.4523118783    0.9636096018   -3.4941432027
H        0.7209904302    1.4404091195   -2.2406444153
24   

C       -2.2733659733   -2.2025436718    1.9976975033
C       -3.9751263968    1.6758223866    2.9373689860
C       -4.7587528948   -0.4140081401    2.0437311949
C       -5.2721266117    1.9787928042    3.3673302347
C       -6.0545338225   -0.1074422854    2.4770086507
C       -3.6820258164    0.4639956177    2.2867020419
C       -6.3232986616    1.0877275862    3.1465566800
C       -2.3100903529    0.2317137599    1.8448447027
C       -0.2624560443   -1.0790283199    1.1797542454
C       -1.6589286615   -0.9563694792    1.6571434247
C        1.3756130376    2.0112717654    0.3903611761
N       -2.7484732474   -3.2341059160    2.2561568108
N        0.5913882045   -0.1690786607    0.7575948422
O        0.2365198556    1.1950060488    0.6633997371
Cl      -7.9409370006    1.4658736089    3.6846568673
H       -3.1855952397    2.3944248947    3.1264791228
H       -4.6279527055   -1.3376236867    1.4949517604
H       -5.4689818787    2.9142068321    3.8780491722
H       -6.8641900623   -0.8020091780    2.2851889555
H       -1.7247147448    1.1367214696    1.8119094850
H        0.1377036081   -2.0870048739    1.1664372181
H        1.0985989794    3.0670590499    0.4575094742
H        1.7503326472    1.8058990943   -0.6168553414
H        2.1712732940    1.8094510044    1.1146112191
24   

C       -2.2782465915   -2.2651926436    1.8152385845
C       -3.9961505408    1.7217358393    2.7601755628
C       -4.7500853089   -0.5027056508    2.2505015989
C       -5.2772661015    2.0542217073    3.2139086983
C       -6.0301120860   -0.1642025853    2.7075641592
C       -3.6928792103    0.4336197520    2.2785337927
C       -6.3060762202    1.1132683017    3.1958317668
C       -2.3293197772    0.1864521292    1.8271843570
C       -0.2975240802   -1.0806369146    1.0395914567
C       -1.6857161834   -0.9904576275    1.5528313242
C        1.4136234636    2.0354502677    0.5651780120
N       -2.7204040190   -3.3251760952    2.0102079828
N        0.5684299105   -0.1497929305    0.6924449373
O        0.2520327290    1.2256114092    0.7470255255
Cl      -7.9050725313    1.5279490496    3.7620001380
H       -3.2268159328    2.4849484301    2.7944508299
H       -4.6440547666   -1.5015432818    1.8547569682
H       -5.4786289853    3.0523356089    3.5851881736
H       -6.8237639573   -0.9017855262    2.6762845671
H       -1.7504789084    1.0933484301    1.7792778706
H        0.0892595490   -2.0874531995    0.9246229672
H        1.1607184004    3.0866404558    0.7295379431
H        1.7966594727    1.9175527958   -0.4528948426
H        2.1943813367    1.7459958285    1.2757309203
24   

C       -2.3531073864   -2.2647336258    1.4858525347
C       -4.0373094584    1.7617564653    2.5824471355
C       -4.7032566264   -0.5445049875    2.4588031237
C       -5.3148300265    2.1102322776    3.0331908182
C       -5.9805343170   -0.1874772143    2.9107331670
C       -3.6934809692    0.4284330712    2.2824798444
C       -6.2995222030    1.1386859661    3.2019287303
C       -2.3348400776    0.1771583629    1.8211768063
C       -0.3013078083   -1.0635511982    1.0022401865
C       -1.7116454066   -0.9874404719    1.4588991893
C        1.5224256189    2.0303931326    0.8201358634
N       -2.8188351607   -3.3327163348    1.4860272100
N        0.6189147237   -0.1357263685    0.8273652377
O        0.3667868959    1.2318325601    1.0732168137
Cl      -7.8947674864    1.5722319065    3.7645485663
H       -3.3050316183    2.5529699301    2.4669006331
H       -4.5754186253   -1.5965051015    2.2663380361
H       -5.5477909679    3.1451325356    3.2553621928
H       -6.7376020237   -0.9528107381    3.0376425336
H       -1.7596484426    1.0851744989    1.7755305745
H        0.0535904267   -2.0602180384    0.7627193310
H        1.2987466092    3.0801714557    1.0297285711
H        1.8242085782    1.9352486507   -0.2274412992
H        2.3499501896    1.7104340479    1.4608109769
24   

C       -2.4824322935   -2.1770115960    1.1737156764
C       -4.1145121730    1.7727754719    2.3875961912
C       -4.6148144859   -0.5605952122    2.6728124839
C       -5.3951957134    2.1051081689    2.8426728945
C       -5.8960280328   -0.2215621982    3.1261273953
C       -3.6926259620    0.4337010917    2.2776639051
C       -6.3001583002    1.1109807372    3.2127169420
C       -2.3392001839    0.1908555698    1.7946307267
C       -0.3269545311   -1.0677020873    0.9458643662
C       -1.7482016734   -0.9634153387    1.3553504108
C        1.5909212458    1.9578490598    1.1246277001
N       -3.0384651116   -3.1878680301    1.0122404603
N        0.6528328102   -0.1863941013    0.9572335773
O        0.4713238375    1.1292434966    1.4378741796
Cl      -7.8985454089    1.5254539378    3.7807551925
H       -3.4449638763    2.5788365870    2.1091846379
H       -4.3805181691   -1.6144634504    2.6784927713
H       -5.6934779400    3.1448635330    2.9102210172
H       -6.5851750857   -1.0040213641    3.4223097162
H       -1.7675645477    1.1008327465    1.7234544883
H       -0.0243047786   -2.0375575829    0.5660214215
H        1.3724269789    2.9936407864    1.3991627299
H        1.8072115607    1.9160560301    0.0523711799
H        2.4721233227    1.6219589884    1.6793728194
24   

C       -2.5851636926   -2.0890479011    1.0446078339
C       -4.2092358787    1.7544028439    2.2265752227
C       -4.5040965444   -0.5452241232    2.8624679702
C       -5.4922905557    2.0505566802    2.7008466803
C       -5.7877707964   -0.2447409214    3.3343401390
C       -3.6928330396    0.4471586397    2.2741271506
C       -6.2962757790    1.0529108249    3.2539978998
C       -2.3362554356    0.2226941760    1.7834328810
C       -0.3847231729   -1.0485568990    0.8207134625
C       -1.7901876614   -0.9211735942    1.2695007613
C        1.6517196942    1.8665398493    1.2812234845
N       -3.2022750767   -3.0590740384    0.8578670919
N        0.6266524276   -0.2076494322    0.8931215046
O        0.4974078414    1.0575484654    1.5080651194
Cl      -7.8975736138    1.4229348106    3.8441120357
H       -3.6148200590    2.5570983009    1.8048423335
H       -4.1562843616   -1.5617428494    2.9930658657
H       -5.8716261031    3.0640041152    2.6407214216
H       -6.3952590229   -1.0264626138    3.7755073368
H       -1.7675642900    1.1348667263    1.6972053755
H       -0.1291677649   -1.9936907491    0.3540926678
H        1.4715119951    2.8798853921    1.6507993765
H        1.8770954102    1.9170465494    0.2111801459
H        2.5134736187    1.4448298973    1.8071771932
24   

C       -2.6698379166   -1.9958171876    0.9641816797
C       -4.2958694222    1.7215014877    2.0808151744
C       -4.3911863389   -0.4900534415    3.0226822231
C       -5.5808273376    1.9845229868    2.5701815570
C       -5.6765065050   -0.2242305881    3.5098465339
C       -3.6882884040    0.4696779680    2.2700833705
C       -6.2859000595    1.0123740078    3.2836425908
C       -2.3200100562    0.2621683884    1.7899872250
C       -0.4412416610   -1.0100362778    0.6954838248
C       -1.8252607721   -0.8645447917    1.1978699391
C        1.7263650235    1.7660700461    1.3752813216
N       -3.3322254226   -2.9347064304    0.7742112350
N        0.5987065602   -0.2085608402    0.7974842864
O        0.5243358339    1.0080207822    1.5120177044
Cl      -7.8896806323    1.3411416379    3.8911866917
H       -3.7727185409    2.4994545884    1.5362162141
H       -3.9453207944   -1.4520753010    3.2474212593
H       -6.0387799309    2.9515308470    2.3977855304
H       -6.2063249272   -0.9827812076    4.0742402653
H       -1.7477574057    1.1739633589    1.7124403020
H       -0.2332494118   -1.9300183412    0.1601674231
H        1.5916771706    2.7560911030    1.8198410093
H        1.9821549985    1.8867317685    0.3177856146
H        2.5498689114    1.2570887240    1.8851012333
24   

C       -2.7297971413   -1.8867777667    0.8732224317
C       -4.3885233263    1.6604313477    1.9415792136
C       -4.2807531528   -0.4013307579    3.1789364435
C       -5.6734163945    1.8945693695    2.4461048858
C       -5.5657332467   -0.1653198812    3.6818456196
C       -3.6862883266    0.4921697844    2.2723346694
C       -6.2764943364    0.9813824471    3.3158158119
C       -2.3051512318    0.3077274377    1.7967008725
C       -0.4901254732   -0.9235333702    0.5594637088
C       -1.8518796346   -0.7833601709    1.1180459170
C        1.7860826863    1.6999689702    1.4585546106
N       -3.4216447619   -2.8015732927    0.6715623853
N        0.5703902658   -0.1542373183    0.6901638102
O        0.5421654561    1.0009148118    1.5035074868
Cl      -7.8801829979    1.2738425320    3.9418902097
H       -3.9396303845    2.3897985811    1.2767544899
H       -3.7454531513   -1.2906334137    3.4930599990
H       -6.2106509832    2.7926700971    2.1644938368
H       -6.0168819428   -0.8756370316    4.3648273105
H       -1.7306389574    1.2207947899    1.7483287563
H       -0.3215836087   -1.8069766108   -0.0465112742
H        1.6935877898    2.6532304841    1.9864284640
H        2.0738306988    1.8980104365    0.4211721630
H        2.5683820985    1.1035657506    1.9376454359
24   

C       -2.8007519018   -1.7605426453    0.7368111739
C       -4.4771103086    1.5474794369    1.8092104646
C       -4.1805235947   -0.2847690089    3.3438705214
C       -5.7661824064    1.7590943894    2.3131930583
C       -5.4695556596   -0.0712259715    3.8466362284
C       -3.6799458227    0.5031366708    2.2969097657
C       -6.2762096286    0.9490808571    3.3327766025
C       -2.2906528192    0.3347038069    1.8132430725
C       -0.5331914096   -0.8457504532    0.4519004135
C       -1.8815513458   -0.7065345451    1.0410199660
C        1.8450862217    1.6040860812    1.5528939414
N       -3.5273046578   -2.6331735240    0.4784768911
N        0.5530376377   -0.1231385139    0.6285467119
O        0.5696566043    0.9631358286    1.5321138958
Cl      -7.8850436686    1.2130113474    3.9583617410
H       -4.0986155729    2.1929946820    1.0246602777
H       -3.5673503846   -1.0755295144    3.7618147783
H       -6.3795928127    2.5581615425    1.9135660130
H       -5.8502378328   -0.7002749261    4.6427880891
H       -1.6935337910    1.2340952813    1.8462969963
H       -0.4017081667   -1.6836200054   -0.2239089835
H        1.7920097687    2.5130757731    2.1585660269
H        2.1512716862    1.8744241542    0.5373712815
H        2.5944116223    0.9335934857    1.9844250821
24   

C       -2.8983911403   -1.5265931573    0.4991225602
C       -4.5765784707    1.3523061947    1.6566586780
C       -4.0787118184   -0.1187921083    3.5019260073
C       -5.8830010351    1.5075972795    2.1355822283
C       -5.3860503703    0.0386792044    3.9777311550
C       -3.6613991638    0.5378197939    2.3353332071
C       -6.2994047721    0.8536988081    3.3002346206
C       -2.2727705683    0.3747913830    1.8349642537
C       -0.5455175421   -0.8084478387    0.4324798702
C       -1.9098598969   -0.6016636496    0.9640328724
C        1.9172203974    1.5270359049    1.5970666095
N       -3.6811729172   -2.2930059168    0.1041831535
N        0.5710460496   -0.1460657479    0.6519710269
O        0.6060066452    0.9684491472    1.5184883564
Cl      -7.9290791668    1.0498663500    3.8961267542
H       -4.2729829844    1.8633037142    0.7498517348
H       -3.3858110284   -0.7580645918    4.0374661421
H       -6.5840339198    2.1375931799    1.6006913754
H       -5.6999603917   -0.4761515626    4.8781974755
H       -1.5686880296    1.0980587666    2.2169090941
H       -0.4341520967   -1.6410670073   -0.2533970763
H        1.9124637951    2.3869558166    2.2726899620
H        2.2466324062    1.8568487205    0.6069366111
H        2.6223971671    0.7817970070    1.9778272925
24   

C       -2.9617242505   -1.2820617320    0.2518512178
C       -4.6671473951    1.1338439515    1.5434665821
C       -3.9880707729    0.0947509093    3.6117530476
C       -5.9770463366    1.2348959699    2.0267913454
C       -5.2996701702    0.1975084111    4.0909939601
C       -3.6519687322    0.5852748686    2.3401144060
C       -6.3043059792    0.7732357135    3.3060181215
C       -2.2745298067    0.4163310155    1.8226651801
C       -0.5624651107   -0.7619178310    0.4047588105
C       -1.9398718424   -0.4912049836    0.8676235329
C        1.9235930871    1.4811347393    1.6919000416
N       -3.7735513672   -1.9347675340   -0.2687780453
N        0.5676233681   -0.1470442604    0.6840973096
O        0.5932261772    0.9934864797    1.5177929606
Cl      -7.9385627775    0.9027649179    3.9075468128
H       -4.4371111595    1.4832574589    0.5430083108
H       -3.2279775868   -0.3690933465    4.2302270448
H       -6.7505350328    1.6688968609    1.4040302260
H       -5.5467607874   -0.1765786591    5.0776223231
H       -1.5030889018    0.8321835621    2.4539457965
H       -0.4555656695   -1.5887550634   -0.2887696017
H        1.9295524322    2.2803151855    2.4383400926
H        2.3044798268    1.8768125889    0.7455174116
H        2.5821464086    0.6757930894    2.0322969404
24   

C       -2.9913810970   -1.1586978213    0.0725234083
C       -4.7464148126    0.9702653070    1.4980094606
C       -3.9207629511    0.2964010866    3.6637401211
C       -6.0380590982    1.0758160464    2.0270540967
C       -5.2149282189    0.4044719208    4.1870412953
C       -3.6664225934    0.5959790239    2.3136018339
C       -6.2838752598    0.7979074885    3.3754530814
C       -2.3050202075    0.4131539902    1.7825601359
C       -0.5940808826   -0.6712495518    0.2888026287
C       -1.9741429113   -0.4198921491    0.7565050256
C        1.9152444091    1.3973891998    1.8036987754
N       -3.8007018676   -1.7625873954   -0.5076158325
N        0.5415172275   -0.0973983402    0.6275228876
O        0.5760614751    0.9736816648    1.5484851736
Cl      -7.8967569059    0.9304727315    4.0315200429
H       -4.5853394742    1.1829696840    0.4468710088
H       -3.1115265469   -0.0254914406    4.3094629005
H       -6.8607831299    1.3703181414    1.3859915353
H       -5.3981582793    0.1760281853    5.2304491342
H       -1.5242477735    0.7475882560    2.4493851542
H       -0.4890827287   -1.4429020578   -0.4659507574
H        1.9222968224    2.1334236421    2.6124657886
H        2.3414203098    1.8535338740    0.9050734383
H        2.5345247178    0.5441845174    2.0982078776
24   

C       -2.9770078487   -1.1003994267   -0.0854586862
C       -4.8122863469    0.7848967548    1.4792181533
C       -3.8572551228    0.4598170298    3.6730562081
C       -6.0806841837    0.9158699520    2.0567957739
C       -5.1291050990    0.5930528371    4.2427307336
C       -3.6781661000    0.5576892843    2.2793291669
C       -6.2513769487    0.8217272007    3.4411490645
C       -2.3295670035    0.3707284678    1.7380345428
C       -0.5976772823   -0.5712983757    0.1708033563
C       -1.9841849656   -0.3786066222    0.6501094653
C        1.8973573639    1.3232084649    1.9184093269
N       -3.7658207555   -1.6876157075   -0.7094405891
N        0.5316990418   -0.0182460093    0.5619047886
O        0.5583877016    0.9665911879    1.5746015819
Cl      -7.8364479946    0.9845994130    4.1555729707
H       -4.7214397066    0.8750074845    0.4027973924
H       -3.0072029392    0.2716760245    4.3191925417
H       -6.9439760086    1.0911425802    1.4253878336
H       -5.2526365534    0.5142260845    5.3165214969
H       -1.5479825960    0.6771312928    2.4163647615
H       -0.4794237616   -1.2764657049   -0.6446465939
H        1.8920642260    1.9806665868    2.7922734776
H        2.3714354272    1.8470606170    1.0829636177
H        2.4810249330    0.4278312907    2.1548714051
24   

C       -2.9449408138   -1.0331597102   -0.2517144309
C       -4.8735731967    0.5957939517    1.4801076132
C       -3.7998424452    0.6202071600    3.6427355037
C       -6.1162136455    0.7589160497    2.1041528397
C       -5.0468107454    0.7847396635    4.2568401924
C       -3.6901476515    0.5129796329    2.2400943754
C       -6.2157131515    0.8519739126    3.4947679581
C       -2.3529707718    0.3251781605    1.6844087405
C       -0.5895822665   -0.4549110168    0.0608400549
C       -1.9843552283   -0.3311422658    0.5425998709
C        1.8802069810    1.2422492534    2.0311859528
N       -3.7035760318   -1.6059826206   -0.9247551790
N        0.5306879276    0.0743606656    0.5082016757
O        0.5458471094    0.9566419103    1.6113749876
Cl      -7.7698859998    1.0537795975    4.2649675565
H       -4.8581502928    0.5605613088    0.3981762153
H       -2.9147757765    0.5652110743    4.2665488415
H       -7.0158798803    0.8176498388    1.5025462426
H       -5.1136485639    0.8583212689    5.3360365082
H       -1.5724625429    0.6215941666    2.3669350767
H       -0.4532318057   -1.0826771902   -0.8130139607
H        1.8602107622    1.8130717269    2.9637639265
H        2.3954348498    1.8304452876    1.2659095976
H        2.4338156949    0.3129327046    2.1991576150
24   

C       -2.9245092492   -0.9226950378   -0.4107187908
C       -4.9311166980    0.3851086914    1.5176708719
C       -3.7690450264    0.7738806212    3.5951830499
C       -6.1519237250    0.5749423538    2.1768501779
C       -4.9945814790    0.9637753110    4.2435001151
C       -3.7078099340    0.4632814722    2.2183410361
C       -6.1969250656    0.8611103462    3.5425141761
C       -2.3785682327    0.2853814995    1.6476461740
C       -0.5906082217   -0.3393174609   -0.0166861338
C       -1.9932225468   -0.2726569041    0.4582696633
C        1.8705489322    1.1283964928    2.1417817504
N       -3.6482213505   -1.4592631901   -1.1491879636
N        0.5255943683    0.1450517907    0.4893662893
O        0.5383796915    0.9072060240    1.6785408722
Cl      -7.7249406861    1.0949624949    4.3548299040
H       -4.9871863651    0.2044002266    0.4541067541
H       -2.8598849918    0.8604859126    4.1795257251
H       -7.0789629513    0.5049977285    1.6195265209
H       -5.0175195457    1.1920371593    5.3027216240
H       -1.5997072970    0.5790213624    2.3313461688
H       -0.4410413902   -0.8782088065   -0.9460213761
H        1.8453647867    1.6131676686    3.1217502219
H        2.4085630478    1.7732975775    1.4405441537
H        2.4045628773    0.1772260627    2.2331876737
24   

C       -2.9225420986   -0.6403592204   -0.5814978243
C       -4.9507884493    0.1259394960    1.6127475202
C       -3.7594659596    0.9528811709    3.5348599623
C       -6.1598532539    0.3241800976    2.2912326913
C       -4.9729374685    1.1472143404    4.2037543040
C       -3.7113908060    0.4357510970    2.2202635520
C       -6.1845005566    0.8346829783    3.5889718690
C       -2.3866524486    0.2816717306    1.6344289465
C       -0.5832636415   -0.2680835957   -0.0392199694
C       -1.9963171791   -0.1813317332    0.4059734288
C        1.9221690881    0.8717551318    2.2748414124
N       -3.6274672205   -1.0267292741   -1.4248257241
N        0.5473854348    0.0612093192    0.5535440820
O        0.5830992509    0.6177312192    1.8510135265
Cl      -7.6984786180    1.0773797288    4.4246157417
H       -5.0484381140   -0.2715583232    0.6155931005
H       -2.8449212942    1.2118558056    4.0565143940
H       -7.0952968951    0.0778151979    1.8020874631
H       -4.9784041230    1.5451013581    5.2118465757
H       -1.6128979287    0.5903866655    2.3151610064
H       -0.4367193301   -0.6737079132   -1.0345010857
H        1.9165989066    1.2860418582    3.2869432631
H        2.4007726909    1.5893433443    1.6014031459
H        2.5003804879   -0.0573930325    2.2763651996
