39   

C        2.6418317084   -0.4562291984    1.0319765084
C        1.3827128896   -0.9359428139    1.4559289212
C        2.7321175987    0.5501711197    0.0486366608
C       -0.1243247260    2.1194958479   -1.6123083377
C        0.3544119119    0.5715751967   -0.0696781316
C        0.2030781156   -0.4074194861    0.8989604009
C       -0.7134466279    1.2222232835   -0.7545035137
C        1.5569922905    1.0606073827   -0.5018019610
C       -1.3298552714   -2.2499502124    1.7645543328
C       -2.3825657787   -2.8596931459    2.3936589796
C       -2.1415527084    0.8340217767   -0.4655076520
C       -1.2119868786   -0.8221075639    1.2718450525
C       -2.1821124096   -0.6236309093    0.0666429200
C       -2.6021736198   -2.9116194169    3.8950822029
C       -2.8563289448   -1.9002695347   -1.9912664675
C       -3.1008363882   -3.9249215010    1.6017641549
N        1.2814540342    2.0350782335   -1.4682395244
N       -1.8102579605   -1.5542111290   -1.0206594331
O       -4.4223649361   -3.4821644941    1.2892138933
H        3.5464830506   -0.8627087882    1.4691572907
H        1.3291785902   -1.7039894818    2.2181115817
H        3.6950033382    0.9235288099   -0.2756552557
H       -0.6644404231    2.7753810996   -2.2879833142
H       -0.7317301524   -2.9076840429    1.1431802440
H       -2.5417973802    1.5086712832    0.2969404896
H       -2.7582796065    0.9337535696   -1.3627794900
H       -1.5393811358   -0.1627314110    2.0811916533
H       -3.2011749253   -0.8554584520    0.3942336373
H       -3.4401359087   -3.5679046659    4.1496986787
H       -1.7005091759   -3.2804321716    4.3926309382
H       -2.8248573849   -1.9083623406    4.2697673230
H       -3.7275188724   -2.3135594894   -1.4725732768
H       -3.1670995375   -1.0183853891   -2.5592354531
H       -2.4805778960   -2.6529142806   -2.6911475600
H       -2.5576733767   -4.1517781783    0.6784062295
H       -3.1571630577   -4.8478359130    2.1882125123
H        1.9788027604    2.5805072145   -1.9654411198
H       -0.9278585043   -1.2648441626   -1.4437965108
H       -4.8788276341   -4.1356688741    0.7311553145
39   

C        2.6483997814   -0.5602102427    1.0497537973
C        1.3860082493   -1.0620539532    1.4374503095
C        2.7472754596    0.4814634137    0.1045001722
C       -0.0940265251    2.0887983780   -1.5462571247
C        0.3720911450    0.4923791742   -0.0499729438
C        0.2119523858   -0.5198224419    0.8823753551
C       -0.6894512696    1.1575908283   -0.7300779581
C        1.5775727752    1.0040261637   -0.4458905234
C       -1.3188092519   -2.3820165353    1.6981444026
C       -2.2990758035   -2.9050351691    2.4824359463
C       -2.1180177013    0.7460765992   -0.4800334964
C       -1.2067046550   -0.9519097501    1.2189354489
C       -2.1538863528   -0.7313279574   -0.0008884921
C       -2.4223235399   -2.6646791710    3.9762530122
C       -2.7183230874   -1.8614869194   -2.1804609165
C       -2.9534581604   -4.1671315651    1.9760591035
N        1.3098148955    2.0100081095   -1.3818621979
N       -1.7468021594   -1.6283824857   -1.1034665852
O       -4.3554484121   -4.1391126645    2.2548949619
H        3.5490509371   -0.9768343476    1.4856442691
H        1.3258567676   -1.8574143330    2.1706131474
H        3.7125106459    0.8719449542   -0.1914918491
H       -0.6284092815    2.7632615665   -2.2081161581
H       -0.8471444903   -3.0679730387    1.0023190506
H       -2.5368267269    1.3889011322    0.2998372337
H       -2.7215532965    0.8764723365   -1.3820515681
H       -1.5554233200   -0.3046497490    2.0294323178
H       -3.1771993660   -0.9835649403    0.2967814871
H       -3.3517991934   -2.1289416208    4.1899045761
H       -2.4305416278   -3.6135992257    4.5208083182
H       -1.5813909903   -2.0643620071    4.3359888251
H       -3.6667617287   -2.2159115664   -1.7641334568
H       -2.8994233414   -0.9428619794   -2.7464972002
H       -2.3350873384   -2.6218073975   -2.8679392105
H       -2.7959134936   -4.2744483926    0.8977888533
H       -2.5031779424   -5.0329866361    2.4723080430
H        2.0105666603    2.5780738367   -1.8480570081
H       -0.8210569337   -1.3623094222   -1.4417996879
H       -4.7910344704   -4.9411893041    1.9167559625
39   

C        2.5940374902   -0.6402020874    1.0611537087
C        1.3233021769   -1.1538312608    1.4038679020
C        2.7131890877    0.4417463946    0.1645919613
C       -0.0928601603    2.1291882163   -1.4666185852
C        0.3414807673    0.4682497552   -0.0320747366
C        0.1613685787   -0.5828678520    0.8525578443
C       -0.7055103491    1.1653348063   -0.7028574909
C        1.5553236556    0.9923387212   -0.3834384934
C       -1.3907018844   -2.4670903901    1.5668884032
C       -2.2811056935   -2.9539356378    2.4610008752
C       -2.1392216699    0.7466961889   -0.4990274806
C       -1.2645337578   -1.0226559948    1.1442841531
C       -2.1860549038   -0.7500290205   -0.0847867656
C       -2.3619495455   -2.5104929690    3.9082778400
C       -2.7098890376   -1.7813633747   -2.3229239331
C       -2.8873812924   -4.3013735756    2.1528485118
N        1.3074349173    2.0389902364   -1.2795581837
N       -1.7598585185   -1.5995692500   -1.2171274013
O       -4.2773714078   -4.2986942500    2.4877435974
H        3.4854489160   -1.0791747506    1.4940412757
H        1.2470337858   -1.9808130772    2.0995884787
H        3.6847623929    0.8411170965   -0.0967579263
H       -0.6132425715    2.8329388978   -2.1088702574
H       -1.0149734478   -3.1563050328    0.8179948353
H       -2.5724551955    1.3562810274    0.2994531036
H       -2.7247835243    0.9172621411   -1.4061704468
H       -1.6284737667   -0.4010333804    1.9679742508
H       -3.2153697992   -1.0120877166    0.1820885712
H       -3.2956015855   -1.9660733327    4.0771662277
H       -2.3338736278   -3.3748438896    4.5785272116
H       -1.5226001478   -1.8535423141    4.1552507021
H       -3.6679940326   -2.1493154204   -1.9419569801
H       -2.8761354485   -0.8382691300   -2.8520566633
H       -2.3153513481   -2.5128314798   -3.0348648755
H       -2.7670825987   -4.5449066855    1.0922399709
H       -2.3753254285   -5.0719988687    2.7380972631
H        2.0180796012    2.6242969564   -1.7079027768
H       -0.8262539473   -1.3235234216   -1.5245486829
H       -4.6866453493   -5.1561042747    2.2760721929
39   

C        2.5426216835   -0.7219962852    1.1327405558
C        1.2573748030   -1.2350645172    1.4174952809
C        2.6992903313    0.3888450012    0.2782264762
C       -0.0390316218    2.1555708319   -1.3837797441
C        0.3354821182    0.4442354672    0.0078995042
C        0.1183168115   -0.6346387649    0.8499984560
C       -0.6835007060    1.1720525212   -0.6731928838
C        1.5641321119    0.9687207069   -0.2867151838
C       -1.4668023473   -2.5245908052    1.4537128684
C       -2.2368302741   -3.0125051598    2.4468744369
C       -2.1257058644    0.7575434490   -0.5318940394
C       -1.3198745328   -1.0719563784    1.0790533934
C       -2.1951176260   -0.7527836178   -0.1728839821
C       -2.3073527933   -2.4247833821    3.8392619565
C       -2.6418755134   -1.6878644767   -2.4696822927
C       -2.7584179630   -4.4204191284    2.2880358195
N        1.3536291099    2.0470464702   -1.1544599800
N       -1.7362369840   -1.5655910102   -1.3191792355
O       -4.1190255343   -4.4891142246    2.7227078560
H        3.4161940519   -1.1842471404    1.5775703521
H        1.1521523382   -2.0851847425    2.0808106843
H        3.6819934886    0.7874525913    0.0610561808
H       -0.5327715854    2.8843730181   -2.0191035749
H       -1.1757732230   -3.2106053041    0.6653190667
H       -2.5812690116    1.3417853189    0.2731101795
H       -2.6799289808    0.9649438552   -1.4509374701
H       -1.7095272896   -0.4671125854    1.9030620526
H       -3.2347105568   -1.0160260032    0.0491259842
H       -3.2550695354   -1.8943727484    3.9701074386
H       -2.2416163448   -3.2146150887    4.5936154396
H       -1.4840711831   -1.7235390288    4.0048821804
H       -3.6235611521   -2.0453658206   -2.1426170152
H       -2.7639810797   -0.7239602419   -2.9727356316
H       -2.2334713202   -2.4041369776   -3.1891892068
H       -2.6936342768   -4.7408371181    1.2432304627
H       -2.1500462515   -5.1026115711    2.8904440542
H        2.0823625957    2.6397398042   -1.5401343564
H       -0.7865531013   -1.2940137921   -1.5776205857
H       -4.4765758941   -5.3868216619    2.6053087187
39   

C        2.4342899647   -0.8426017890    1.2746357737
C        1.1258851744   -1.3362707607    1.4759882757
C        2.6584368106    0.2867007166    0.4603637764
C        0.0495513213    2.1497376411   -1.3013527350
C        0.3142864765    0.3979209200    0.0651854680
C        0.0306823284   -0.6977390640    0.8651226322
C       -0.6513383078    1.1620057611   -0.6527850325
C        1.5669772598    0.9043923824   -0.1486972498
C       -1.6136030534   -2.5713239554    1.3361124561
C       -2.1711798346   -3.0643541869    2.4555106373
C       -2.1058210495    0.7709228305   -0.6039726790
C       -1.4258733744   -1.1143260144    1.0000419385
C       -2.2200575785   -0.7475708131   -0.2931336254
C       -2.1338312311   -2.3903931638    3.8073593357
C       -2.5489233241   -1.6008438971   -2.6412665303
C       -2.6316845763   -4.5028667179    2.4273416700
N        1.4250061588    2.0079629069   -0.9984762211
N       -1.7121423212   -1.5366277558   -1.4350685988
O       -3.8923365364   -4.6308073430    3.0909007424
H        3.2734837337   -1.3349851509    1.7520869831
H        0.9690804806   -2.2023543354    2.1077159563
H        3.6590401544    0.6698845478    0.3063800248
H       -0.3944798943    2.9030181665   -1.9447661007
H       -1.4952778806   -3.2501869547    0.4983749813
H       -2.5956439925    1.3408794505    0.1911320327
H       -2.6042514561    1.0145842113   -1.5457581998
H       -1.8559575904   -0.5175323566    1.8094833308
H       -3.2751068917   -0.9968732770   -0.1382257419
H       -3.0812729301   -1.8756266191    3.9918569557
H       -1.9773352968   -3.1284900998    4.5998546458
H       -1.3187392678   -1.6623216365    3.8563325197
H       -3.5580974354   -1.9389238548   -2.3847567089
H       -2.6141609257   -0.6202326219   -3.1221363585
H       -2.1168964189   -2.3081613706   -3.3557848976
H       -2.7289738930   -4.8572539772    1.3961896785
H       -1.8898236113   -5.1297704707    2.9322145997
H        2.1850392178    2.5946957607   -1.3288948049
H       -0.7421612469   -1.2820593481   -1.6274371695
H       -4.2082173225   -5.5511708575    3.0640995173
39   

C        2.2261016421   -0.8838083131    1.3125484485
C        0.9044645250   -1.3609134948    1.4583030843
C        2.4955581800    0.2559995726    0.5278078396
C       -0.0192357420    2.1837290092   -1.2985045510
C        0.1685101499    0.4092693600    0.0516140073
C       -0.1606797775   -0.6941247482    0.8232538687
C       -0.7579299352    1.1970283999   -0.6915561100
C        1.4356490069    0.8997326529   -0.1089321021
C       -1.8506844037   -2.5446924085    1.2229462401
C       -2.1322027259   -3.0578817331    2.4311177208
C       -2.2177217378    0.8244573156   -0.7064557276
C       -1.6292546273   -1.0894833980    0.8992217976
C       -2.3644693478   -0.6966837678   -0.4211789045
C       -1.9683770886   -2.3294844042    3.7428514317
C       -2.5935043381   -1.4989432888   -2.7999191114
C       -2.4969905907   -4.5229601923    2.4998700824
N        1.3415344463    2.0178693178   -0.9460076366
N       -1.8214907553   -1.4815181325   -1.5496791718
O       -3.5940635905   -4.7230181672    3.3960716988
H        3.0403908766   -1.3979860882    1.8097642895
H        0.7163143472   -2.2375477367    2.0661324818
H        3.5065750433    0.6262602489    0.4160441598
H       -0.4276524271    2.9517694045   -1.9479947510
H       -1.9215755307   -3.2095625115    0.3688317116
H       -2.7316447478    1.3905752638    0.0760806060
H       -2.6747923786    1.0877376989   -1.6637781329
H       -2.0833079629   -0.4922819398    1.6953394976
H       -3.4284696697   -0.9319534587   -0.3128245348
H       -2.9224860861   -1.8862115634    4.0426844087
H       -1.6440536470   -3.0212382194    4.5261961808
H       -1.2192577129   -1.5366875030    3.6632737400
H       -3.6275660244   -1.7997127444   -2.6030745280
H       -2.5939271302   -0.5110912593   -3.2703310432
H       -2.1508190135   -2.2143296357   -3.4997252796
H       -2.7704894171   -4.8992949266    1.5090106958
H       -1.6315313804   -5.0939093138    2.8507362305
H        2.1219420377    2.5975990206   -1.2392000791
H       -0.8353585555   -1.2540802503   -1.6863739275
H       -3.8473482328   -5.6622116387    3.4330211389
39   

C        2.1666410718   -0.9302706155    1.3308564128
C        0.8337921396   -1.3771743359    1.4683103949
C        2.4684618355    0.1936979818    0.5356651597
C        0.0153106867    2.1516352845   -1.3406439535
C        0.1498109117    0.3906995452    0.0333532669
C       -0.2114440853   -0.6958611598    0.8146135437
C       -0.7511335355    1.1887575816   -0.7297061240
C        1.4290254551    0.8517894674   -0.1196109184
C       -1.9442422094   -2.5047657551    1.2187223705
C       -2.0847103866   -3.0252741850    2.4480079235
C       -2.2182597845    0.8472318047   -0.7565229546
C       -1.6899643422   -1.0594451153    0.8787740914
C       -2.4011156898   -0.6669759273   -0.4549010766
C       -2.0129041052   -2.2471997726    3.7383104210
C       -2.6161397296   -1.4891614027   -2.8282788991
C       -2.3034902653   -4.5178046003    2.5533871896
N        1.3682811361    1.9610659312   -0.9712097124
N       -1.8621099689   -1.4774173552   -1.5670281085
O       -3.3464568480   -4.8093387325    3.4887535993
H        2.9644519626   -1.4558835909    1.8426515463
H        0.6235757084   -2.2424995291    2.0846762008
H        3.4883380623    0.5407320476    0.4300537715
H       -0.3691773769    2.9199593793   -2.0042161230
H       -2.0550636726   -3.1755144632    0.3735180692
H       -2.7283624748    1.4337694119    0.0133614803
H       -2.6589169208    1.1088086961   -1.7219646704
H       -2.1410475479   -0.4433011175    1.6618731137
H       -3.4711676217   -0.8778567374   -0.3565650914
H       -3.0055087904   -1.8685458772    3.9992178563
H       -1.6588195020   -2.8869248806    4.5524256164
H       -1.3223189745   -1.4036326814    3.6525284301
H       -3.6608340260   -1.7591226692   -2.6432963424
H       -2.5825042981   -0.5075090858   -3.3103446645
H       -2.1831206641   -2.2248378816   -3.5129279420
H       -2.5715084906   -4.9381802096    1.5788955824
H       -1.3751677290   -4.9955819289    2.8818669667
H        2.1643426770    2.5198424572   -1.2630144100
H       -0.8687242665   -1.2761730617   -1.6918783124
H       -3.5073548493   -5.7677632461    3.5446219751
39   

C        2.1522004047   -1.0043604636    1.3605117626
C        0.8113324093   -1.4225518881    1.5093054570
C        2.4724984985    0.1051357221    0.5524707695
C        0.0490129104    2.0981655282   -1.3252988239
C        0.1554172270    0.3448550447    0.0607246376
C       -0.2233425103   -0.7280777288    0.8523600415
C       -0.7335974548    1.1561771276   -0.7023048537
C        1.4429333800    0.7785213580   -0.1028737244
C       -1.9801523035   -2.5057105160    1.2663147242
C       -2.0703956355   -3.0376041043    2.4969322104
C       -2.2079864744    0.8462404135   -0.7153836898
C       -1.7077695713   -1.0651672915    0.9235937640
C       -2.4201197836   -0.6626552854   -0.4065538684
C       -2.2329525656   -2.2585620071    3.7783441956
C       -2.6763228599   -1.4904245307   -2.7731543736
C       -2.1004603868   -4.5467288688    2.6013690241
N        1.4000814233    1.8819042990   -0.9630713093
N       -1.9065792928   -1.4857622369   -1.5213176898
O       -3.1687097857   -4.9749214772    3.4522474585
H        2.9418508070   -1.5409294666    1.8736102339
H        0.5874260367   -2.2761545591    2.1369514272
H        3.4986821023    0.4300700608    0.4380048568
H       -0.3235293793    2.8699547277   -1.9916422491
H       -2.0361835940   -3.1827388950    0.4207707510
H       -2.6987896673    1.4463358456    0.0565977268
H       -2.6510794932    1.1137525665   -1.6780787782
H       -2.1435642463   -0.4403592185    1.7080459899
H       -3.4934484723   -0.8515257899   -0.2995829402
H       -3.2791984677   -1.9655932000    3.9055529572
H       -1.9323974533   -2.8634883534    4.6392430671
H       -1.6089658699   -1.3605033682    3.7697796254
H       -3.7226145540   -1.7438387220   -2.5741933761
H       -2.6341124844   -0.5109974351   -3.2590657117
H       -2.2631879464   -2.2349001200   -3.4605420868
H       -2.2310768733   -5.0000609043    1.6136563491
H       -1.1468948749   -4.8984464168    3.0073667941
H        2.2058380546    2.4216326531   -1.2639992262
H       -0.9117791815   -1.3005881753   -1.6587765642
H       -3.2073857841   -5.9462727459    3.5026226382
39   

C        2.1967030339   -1.0598512318    1.2909432064
C        0.8540683386   -1.4548889909    1.4808091874
C        2.5111562538    0.0416198961    0.4696747557
C        0.0652658339    2.0725911228   -1.3375893582
C        0.1846462125    0.3190468123    0.0463145096
C       -0.1875588284   -0.7459347359    0.8509368496
C       -0.7139657194    1.1447694111   -0.6893843192
C        1.4737450795    0.7307945853   -0.1565907037
C       -1.9425931986   -2.5022902916    1.3089161979
C       -2.0738799062   -3.0293370314    2.5407563847
C       -2.1935996204    0.8606635768   -0.6537150641
C       -1.6734229624   -1.0608965791    0.9666018944
C       -2.4223080919   -0.6446810957   -0.3384668628
C       -2.6049840736   -2.2953336437    3.7477466576
C       -2.7748152869   -1.4695740978   -2.6928327390
C       -1.8638705769   -4.5216854803    2.6825835310
N        1.4231356067    1.8334765192   -1.0171343270
N       -1.9586996199   -1.4733509121   -1.4707174051
O       -2.9739753711   -5.1322652950    3.3489849316
H        2.9921708208   -1.6076545606    1.7827803264
H        0.6335158992   -2.3013748084    2.1193400422
H        3.5387812211    0.3490092909    0.3239021726
H       -0.3143189330    2.8506485851   -1.9925480047
H       -1.8354757311   -3.1903015329    0.4772447873
H       -2.6479327623    1.4687204492    0.1341907070
H       -2.6632841743    1.1368045011   -1.6012512229
H       -2.0715802586   -0.4343484951    1.7687623671
H       -3.4944633020   -0.8163265389   -0.1965755305
H       -3.6809213067   -2.1303771326    3.6393831686
H       -2.4300730636   -2.8702075239    4.6622291484
H       -2.1053200553   -1.3298870925    3.8641897277
H       -3.8151152086   -1.7139755346   -2.4549690209
H       -2.7423131067   -0.4898543234   -3.1789200846
H       -2.3944217062   -2.2167055177   -3.3960359207
H       -1.7414299581   -4.9895310631    1.7006076530
H       -0.9487025425   -4.7036130069    3.2544734115
H        2.2283218553    2.3592407760   -1.3432973695
H       -0.9680324063   -1.2981677172   -1.6453955724
H       -2.8543917070   -6.0958822079    3.4171242986
39   

C        2.1865283164   -1.1118326209    1.2496513108
C        0.8389845238   -1.4769476252    1.4620228103
C        2.5113452177   -0.0192236548    0.4210103973
C        0.0810548901    2.0639906461   -1.3468310410
C        0.1843656647    0.3085701938    0.0355781953
C       -0.1978148358   -0.7470773479    0.8474543755
C       -0.7079639932    1.1545241793   -0.6843617828
C        1.4788710394    0.6913936457   -0.1892305469
C       -1.9770027743   -2.4691555298    1.3323553364
C       -2.0797837011   -2.9874852109    2.5749779914
C       -2.1931481502    0.9054808962   -0.6203807233
C       -1.6884928809   -1.0296828515    0.9891838350
C       -2.4524187626   -0.5939771321   -0.3002260655
C       -2.8481250033   -2.3492850222    3.7085449080
C       -2.8665268671   -1.4103259305   -2.6475592783
C       -1.6614983324   -4.4309187925    2.7595510951
N        1.4385519710    1.7941510257   -1.0499560663
N       -2.0288008487   -1.4330295950   -1.4403972316
O       -2.7172105187   -5.2005557830    3.3452621847
H        2.9777068194   -1.6756565975    1.7302309110
H        0.6121228216   -2.3164796534    2.1070851857
H        3.5429392997    0.2654890749    0.2581687224
H       -0.2918127128    2.8507485051   -1.9951792958
H       -1.7949584598   -3.1591503368    0.5153994090
H       -2.6177075132    1.5242818236    0.1757000147
H       -2.6737977090    1.1929016494   -1.5590216943
H       -2.0544503463   -0.4008331355    1.8049168241
H       -3.5254207599   -0.7406593814   -0.1383619891
H       -3.9195482815   -2.3683826857    3.4884177717
H       -2.6743027729   -2.8823565282    4.6482658518
H       -2.5336035685   -1.3121719541    3.8518114487
H       -3.9077738960   -1.6304003570   -2.3908985035
H       -2.8198712737   -0.4316591897   -3.1346284796
H       -2.5163081562   -2.1661358595   -3.3571418364
H       -1.3916917597   -4.8791456118    1.7980422534
H       -0.7779819833   -4.4705092385    3.4040160452
H        2.2498202212    2.3013856761   -1.3901288557
H       -1.0378061611   -1.2806950853   -1.6333917860
H       -2.4617981148   -6.1356036162    3.4341496574
39   

C        2.1429677420   -1.1426896522    1.2569953410
C        0.7862294477   -1.4679054087    1.4740364091
C        2.4966655192   -0.0610338156    0.4265796075
C        0.1231015018    2.0936420977   -1.3311040267
C        0.1782999500    0.3346265195    0.0496082878
C       -0.2323906710   -0.7096031778    0.8625910504
C       -0.6906078315    1.2082488558   -0.6657107731
C        1.4830110989    0.6789399132   -0.1798927150
C       -2.0664728464   -2.3818022609    1.3527607826
C       -2.1058579612   -2.9123392617    2.5994998578
C       -2.1824524903    1.0059187347   -0.5942523392
C       -1.7315239564   -0.9484700837    1.0096575132
C       -2.4874069280   -0.4849998280   -0.2748855599
C       -3.0202441777   -2.4268648417    3.7029087284
C       -2.9344009105   -1.2837288298   -2.6227919627
C       -1.5083421506   -4.2929857254    2.7783270444
N        1.4729449315    1.7825161365   -1.0401215639
N       -2.0943466483   -1.3347152540   -1.4181435206
O       -2.4564773984   -5.1973774632    3.3562776282
H        2.9188295119   -1.7288273760    1.7359077731
H        0.5409906846   -2.2990650479    2.1219183629
H        3.5356049446    0.1933390515    0.2602434000
H       -0.2281135380    2.8921567650   -1.9771173523
H       -1.8838729163   -3.0665752560    0.5314947559
H       -2.5831868799    1.6366349603    0.2047921610
H       -2.6583853339    1.3097414154   -1.5301303870
H       -2.0739630364   -0.3163098740    1.8338125991
H       -3.5637625686   -0.5984763435   -0.1088316458
H       -4.0529453709   -2.7140605317    3.4832767085
H       -2.7313341393   -2.8588386232    4.6660812633
H       -2.9688237888   -1.3380866024    3.7902503445
H       -3.9814239541   -1.4705942401   -2.3633927065
H       -2.8575804959   -0.3065513066   -3.1090238229
H       -2.6105660829   -2.0496075167   -3.3341317535
H       -1.1822105518   -4.6967025966    1.8145095068
H       -0.6277868471   -4.2241865200    3.4242020226
H        2.2980177215    2.2650632598   -1.3830263612
H       -1.0996609239   -1.2134580162   -1.6142030784
H       -2.0859591037   -6.0943556014    3.4309287724
39   

C        2.1137917700   -1.1422480570    1.2666629014
C        0.7523997778   -1.4348608399    1.4983169455
C        2.4839385936   -0.0969782265    0.3989026390
C        0.1450131243    2.0456732399   -1.4162440008
C        0.1707609548    0.3281028357    0.0171194513
C       -0.2569184304   -0.6829228190    0.8635798452
C       -0.6831728205    1.1980371549   -0.7200924878
C        1.4811662358    0.6404833990   -0.2275484143
C       -2.1359685346   -2.3103071038    1.3994249545
C       -2.1105886607   -2.8590092058    2.6482842726
C       -2.1781786291    1.0312710986   -0.6333881322
C       -1.7615495494   -0.8922936853    1.0204140888
C       -2.5127201854   -0.4434882020   -0.2731336467
C       -3.1377547199   -2.5669604730    3.7235880448
C       -2.9873122900   -1.2914400923   -2.5991164859
C       -1.3421176773   -4.1553834848    2.8070572375
N        1.4895986064    1.7161580798   -1.1220045865
N       -2.1428854261   -1.3289297295   -1.3970356387
O       -2.1995075321   -5.2142898317    3.2485246550
H        2.8803998010   -1.7251998372    1.7640834189
H        0.5001844623   -2.2358671287    2.1781127999
H        3.5267216327    0.1326501941    0.2210407997
H       -0.1929700097    2.8316344181   -2.0842722322
H       -1.9895019383   -3.0031533245    0.5775929438
H       -2.5592350852    1.6913959944    0.1513634717
H       -2.6537152996    1.3208068877   -1.5739874101
H       -2.0908368537   -0.2382957257    1.8334434172
H       -3.5905338312   -0.5297081169   -0.1003617270
H       -4.1162225149   -2.9493091067    3.4175624718
H       -2.8565037095   -3.0336458140    4.6727709139
H       -3.2159271818   -1.4875336727    3.8823172902
H       -4.0370410243   -1.4475039065   -2.3304905650
H       -2.8906452394   -0.3297781906   -3.1119993711
H       -2.6841493636   -2.0834375139   -3.2907120322
H       -0.8874211638   -4.4471532123    1.8548292222
H       -0.5343350867   -4.0118254902    3.5309669757
H        2.3227846862    2.1707804523   -1.4829922634
H       -1.1467253987   -1.2342849227   -1.6001532350
H       -1.7142243115   -6.0554553293    3.3145066951
39   

C        2.0756688359   -1.0857541408    1.3672451649
C        0.7053407113   -1.3304651403    1.5997500545
C        2.4805304441   -0.1043459609    0.4437176029
C        0.2169716855    2.0034585598   -1.4994812150
C        0.1814222900    0.3544122404    0.0134108289
C       -0.2816614502   -0.6022176208    0.9052176184
C       -0.6402625830    1.2145207260   -0.7703046670
C        1.5022643569    0.6212203018   -0.2321247166
C       -2.2372253735   -2.1663169520    1.4674531238
C       -2.1432021567   -2.7817115859    2.6928457439
C       -2.1392599812    1.1019672343   -0.6824218401
C       -1.7951592211   -0.7739116733    1.0488081655
C       -2.5198479434   -0.3464715196   -0.2695572664
C       -3.2081754624   -2.7165210859    3.7733487859
C       -3.0110240709   -1.2625168535   -2.5670211853
C       -1.2591611282   -4.0121355185    2.7487657019
N        1.5489963274    1.6495700232   -1.1790978892
N       -2.1700338530   -1.2786230441   -1.3619660796
O       -2.0289134618   -5.1918317499    3.0094788068
H        2.8221118079   -1.6548468028    1.9094245209
H        0.4332283056   -2.0735420230    2.3323574312
H        3.5304451694    0.0893944600    0.2651545781
H       -0.0931744770    2.7678833969   -2.2049024282
H       -2.2529289010   -2.8571833993    0.6312360316
H       -2.5001122602    1.8025756925    0.0763374362
H       -2.6028115595    1.3716125571   -1.6348379914
H       -2.1193225502   -0.0848654737    1.8344566472
H       -3.6012200535   -0.3933635037   -0.1039021259
H       -4.1582528878   -3.0936621846    3.3831046964
H       -2.9246644648   -3.3095547979    4.6484691431
H       -3.3469591829   -1.6798502121    4.0934744522
H       -4.0649176186   -1.3817593780   -2.2957639052
H       -2.8887698262   -0.3227375814   -3.1138421634
H       -2.7273825456   -2.0865150573   -3.2288671653
H       -0.7348372027   -4.1427334813    1.7963472833
H       -0.5053218585   -3.8849255218    3.5315319957
H        2.3978574898    2.0624388114   -1.5534770305
H       -1.1709660690   -1.2186501944   -1.5641628232
H       -1.4660073229   -5.9859092126    3.0104825785
