22

C      1.87392   -1.28407    0.02935
C      0.86164   -0.55992    0.61419
C      1.67106   -1.17019    2.83544
C      2.86521   -2.00852    0.80033
C      0.74511   -0.50452    2.02449
C      2.70651   -1.87531    2.24134
N      0.06035    2.05867    2.54377
N      4.07716   -4.13326    2.64070
O      3.76766   -2.71088    0.25395
O     -1.75716    0.43497    1.93857
O     -0.60908    0.14493    4.19126
O      5.21584   -1.85298    3.18905
O      3.38790   -2.72214    4.67918
S     -0.52877    0.44896    2.75043
S      3.93471   -2.57961    3.31840
H      1.96167   -1.34795   -1.05224
H      0.13158   -0.03528    0.00331
H      1.57905   -1.14456    3.91731
H     -0.71248    2.68520    2.77978
H      0.81861    2.20554    3.21231
H      4.20128   -3.95364    1.62651
H      4.93701   -4.53549    3.02024
