26

C      1.71001   -0.94298   -0.31390
C      0.50150   -0.58771    0.28822
C      2.71131   -1.56385    0.43508
C      0.29680   -0.86264    1.64183
C      2.53574   -1.84649    1.79571
C      1.30573   -1.48741    2.37731
C      5.26949   -1.42053    4.74745
C      3.68326   -2.43801    2.55676
N      0.91368   -3.51877    4.10533
O      2.08250   -1.47986    4.96725
O     -0.38854   -1.26935    4.39440
O      6.11908   -1.36428    2.22390
O      4.22832    0.20590    2.91390
S      0.94085   -1.81319    4.10753
S      4.89962   -1.09773    3.01111
H      1.87892   -0.73014   -1.36579
H     -0.27842   -0.09712   -0.28679
H      3.65867   -1.81793   -0.03311
H     -0.63166   -0.59383    2.13401
H      6.01343   -0.67425    5.03326
H      4.35109   -1.30459    5.32135
H      5.68906   -2.42444    4.83603
H      4.26578   -3.12131    1.93753
H      3.38741   -2.93956    3.47560
H      1.06792   -3.83037    5.06653
H      0.00328   -3.85049    3.78203
