34

C     -3.36119   -2.44933   -0.76555
C     -2.01239   -3.42540    0.95827
C     -2.31168   -1.56426   -1.03099
C     -3.21776   -3.39050    0.25041
C     -1.13109   -1.64964   -0.25384
C     -1.21115   -3.32178   -3.64779
C     -0.40533   -2.62259   -4.72096
C      1.38625   -1.25125    0.05903
C      1.17237   -1.21462   -1.43532
C     -1.60489   -1.94647   -4.11162
C      0.06789   -0.74358   -0.45315
C     -0.15679    0.76112   -0.32331
C     -2.48076   -0.58451   -2.16216
N     -1.01103   -2.58076    0.70315
N     -1.39437   -0.77740   -3.21440
Br    -4.61099   -4.61702    0.65177
H     -4.27771   -2.41128   -1.34771
H     -1.85309   -4.15348    1.75040
H     -1.87032   -4.13579   -3.92975
H     -0.76601   -3.42835   -2.66505
H      0.58188   -2.25851   -4.45021
H     -0.49575   -2.94836   -5.75163
H      1.39131   -2.22273    0.53684
H      2.06444   -0.52167    0.48850
H      1.70775   -0.46084   -2.01000
H      1.07691   -2.18428   -1.91895
H     -2.50615   -1.81741   -4.70175
H      0.80413    1.27934   -0.27290
H     -0.70300    0.98479    0.59764
H     -0.70687    1.21243   -1.15585
H     -3.43532   -0.72384   -2.67099
H     -2.41705    0.45358   -1.83602
H     -0.49253   -0.86495   -2.70963
H     -1.32047    0.06857   -3.79144
