50

C     -0.77318    4.74885    0.06568
C     -2.33230    4.96846   -1.75184
C     -1.82277    4.52477    0.95973
C     -3.39553    4.74978   -0.87317
C     -1.00277    4.96832   -1.30051
C     -3.13224    4.52394    0.47846
C     -3.80128    2.14634   -7.77382
C     -2.35940    1.29069   -5.90704
C     -2.75135    3.66338   -6.07023
C     -0.12772    6.05280   -3.44746
C      0.17575    5.17469   -2.23198
C     -2.81622    1.05004   -7.34979
C     -3.22984    3.54637   -7.52068
C      0.67080    3.88313   -2.95121
C     -0.14039    3.86078   -4.28555
C     -3.41517   -0.35061   -7.51008
C     -4.24468    4.64557   -7.84986
C      0.65221    2.61129   -2.10318
C     -1.21877    2.78084   -4.38970
N     -1.77100    2.62249   -5.73526
O     -0.72231    5.18019   -4.41066
Cl    -4.46596    4.24106    1.58926
H      0.24612    4.75328    0.44560
H     -2.54320    5.13773   -2.80264
H     -1.62816    4.35716    2.01448
H     -4.41926    4.75356   -1.23472
H     -4.06670    2.02764   -8.83219
H     -4.73426    2.03091   -7.20131
H     -3.22391    1.14170   -5.22634
H     -1.60612    0.54209   -5.63559
H     -2.29362    4.63879   -5.90648
H     -3.63095    3.59839   -5.39422
H     -0.83588    6.86108   -3.24826
H      0.80067    6.48900   -3.84635
H      1.00094    5.59734   -1.64994
H     -1.92462    1.12810   -7.98631
H     -2.34854    3.67790   -8.16273
H      1.71436    4.07829   -3.22502
H      0.54405    3.71254   -5.13073
H     -4.30201   -0.47480   -6.87690
H     -2.69519   -1.12973   -7.23372
H     -3.72044   -0.53016   -8.54690
H     -5.13677    4.56012   -7.21739
H     -4.57109    4.58048   -8.89386
H     -3.81805    5.64282   -7.69304
H     -0.35552    2.34588   -1.77550
H      1.26477    2.74645   -1.20547
H      1.06818    1.76340   -2.65752
H     -2.00567    2.95605   -3.63504
H     -0.73956    1.83264   -4.12905
