24

C      1.28084   -0.89282   -0.70341
C      0.25449   -0.25361   -0.01821
C      1.16926   -1.08419    2.07862
C      2.26911   -1.64740   -0.04261
C      0.21317   -0.35490    1.37647
C      2.18430   -1.72188    1.36085
C      3.31530   -2.34134   -0.95663
N     -0.39943    2.08426    2.37832
N      3.18599   -4.13967    1.94266
O      3.69257   -1.65085   -1.92379
O      3.60609   -3.53948   -0.66072
O     -2.25402    0.67283    1.43655
O     -1.16224   -0.07243    3.62076
O      4.75752   -2.02720    2.02533
O      3.01627   -2.41321    3.80218
S     -1.05873    0.50734    2.27468
S      3.42936   -2.54243    2.39243
H      1.36314   -0.81088   -1.78233
H     -0.50542    0.31692   -0.54368
H      1.13324   -1.17029    3.15966
H     -1.18192    2.73218    2.48031
H      0.20680    2.14127    3.19745
H      3.37283   -4.16105    0.90750
H      3.86062   -4.71108    2.45554
