39

C     -1.16025    2.02495   -2.73727
C     -2.65322    1.08450   -1.09896
C     -2.14356    1.90722   -3.72306
C     -3.65347    0.96253   -2.06527
C     -0.70383   -1.35448   -3.61224
C      1.06391   -0.21896   -3.51629
C     -1.38828    1.60283   -1.42130
C     -3.37452    1.37074   -3.36585
C      1.54325   -0.55002    2.22313
C      0.58047    0.53125    2.68638
C      1.21098    0.61040    1.32279
C      2.14151    2.82958    1.63431
C     -0.30897    1.70091   -0.36720
C      1.32316   -0.22523   -0.98521
C      0.35604    0.36225    0.06842
N      0.20452   -0.71358   -4.40004
N     -0.44741   -1.29165   -2.30880
N      0.69431   -0.54762   -2.25961
O     -0.63046   -0.60075    0.42256
O      2.26220    1.52511    1.06994
F     -4.34057    1.24662   -4.31609
H     -0.19502    2.44574   -3.00748
H     -2.85130    0.76275   -0.08109
H     -1.96113    2.21192   -4.74856
H     -4.63242    0.55890   -1.82465
H     -1.57077   -1.87450   -3.99742
H      1.94547    0.36958   -3.73605
H      2.54202   -0.54707    2.64853
H      1.12455   -1.52123    1.98376
H     -0.47292    0.27653    2.72932
H      0.92305    1.22131    3.45046
H      2.91499    3.43858    1.15988
H      2.31969    2.81897    2.71682
H      1.16112    3.27799    1.44079
H     -0.74536    2.12490    0.54280
H      0.47441    2.38837   -0.69936
H      2.12850    0.48337   -1.18231
H      1.75769   -1.13879   -0.57003
H     -0.94253   -1.01827   -0.40792
