24

C      2.40834   -0.75215   -0.07853
C      1.26622   -0.26766    0.55575
C      2.97641   -1.98646    1.92356
C      3.26821   -1.61311    0.61065
C      0.97407   -0.63772    1.87403
C      1.83200   -1.50720    2.57392
C      2.61434   -1.25558    4.95936
C      1.60568   -1.92790    4.01620
C      4.48083   -2.18771   -0.08230
C     -0.27553   -0.11167    2.53006
O      3.52143   -1.85865    5.48430
O      2.44478    0.07181    5.16493
F      5.49779   -2.40457    0.81414
F      4.94620   -1.32172   -1.04339
F     -1.00815    0.66660    1.68468
F      0.05617    0.70425    3.62376
H      2.63564   -0.45425   -1.09691
H      0.59475    0.39982    0.02718
H      3.65619   -2.64025    2.46290
H      1.76491   -3.00203    4.11834
H      0.59156   -1.70563    4.35780
H      4.28022   -3.14231   -0.58006
H     -0.93808   -0.88647    2.92467
H      1.68010    0.40519    4.65911
