30

C      1.28142   -1.64359    4.20223
C      1.15880   -1.40651    2.82719
C      0.42188   -1.04483    5.11229
C     -0.73398    0.06952    3.28019
C      0.15071   -0.54756    2.37892
C     -0.59302   -0.18676    4.65010
C     -1.01544    0.26411    0.33686
C      0.75806    0.03808   -1.27865
C      1.08610   -0.72191    0.02605
C     -0.75324    0.16027   -1.17357
C     -2.45708    1.21422    5.20288
N      0.03115   -0.30086    0.97296
N     -1.42134    1.37761   -1.76418
O     -2.03425    0.82495    0.75094
O     -1.39027    0.35232    5.60612
H      2.05992   -2.31146    4.55855
H      1.83281   -1.90507    2.14081
H      0.50851   -1.22401    6.17921
H     -1.50991    0.72265    2.91194
H      1.22747    1.02777   -1.25039
H      1.10705   -0.48940   -2.16758
H      1.05734   -1.80618   -0.11976
H      2.06625   -0.44827    0.41780
H     -1.28354   -0.70806   -1.57457
H     -2.96321    1.50582    6.12267
H     -3.16178    0.69019    4.54708
H     -2.07280    2.10855    4.69851
H     -0.80360    2.19842   -1.75838
H     -2.21703    1.57853   -1.11406
H     -1.76812    1.24179   -2.71964
