27   

C       -4.3482427728    0.0095631457    1.5992891866
C       -3.0710161919   -1.4971825999    0.2018905560
C       -3.1782156284    0.3869978410    2.2624184884
C       -1.8982541256   -1.0996931912    0.8559290087
C       -4.3105141943   -0.9378493902    0.5599144418
C       -1.9397887341   -0.1620453993    1.9029947533
C       -0.6837358968    1.5177429142    3.9256109812
C        0.8138463908    0.7248320630    1.6896273462
C       -5.5347088794   -1.3838027287   -0.1859329166
C       -6.8028352728   -0.5595854737   -0.0601155550
C       -0.1345389511   -1.2119451333    3.5232604239
O       -5.5037866874   -2.3360927581   -0.9557442820
S       -0.4131290395    0.3901060573    2.7444157637
H       -5.2817906707    0.4643289154    1.9103217950
H       -3.0106907519   -2.2291511080   -0.5979713794
H       -3.2326048787    1.1275681367    3.0550782920
H       -0.9491336158   -1.5214793543    0.5402318348
H       -0.0837130387    2.4173460833    3.9547506948
H       -1.4399742737    1.3560630953    4.6813749856
H        1.4361021812    1.5943885065    1.8548525433
H        0.9855498167    0.1015747382    0.8234170188
H       -6.5800508261    0.5001903068   -0.2099606327
H       -7.2475213951   -0.7078283117    0.9272880647
H       -7.5235199907   -0.8733651676   -0.8209050241
H        0.7450677529   -1.1348888163    4.1653843193
H       -1.0052312538   -1.4762986491    4.1261285162
H        0.0395692062   -1.9684646318    2.7571590055
27   

C       -4.3808273042   -0.0640299456    1.6964846262
C       -3.1022815143   -1.5161853936    0.2418563896
C       -3.2038904462    0.3325470781    2.3361334110
C       -1.9233059831   -1.0994845419    0.8722229244
C       -4.3439849782   -0.9957302678    0.6453361776
C       -1.9614797137   -0.1795895365    1.9356666280
C       -0.6945172744    1.5012315204    3.9502124221
C        0.7606794668    0.7825391221    1.6619572676
C       -5.5745229927   -1.4432099856   -0.0897748728
C       -6.7410593191   -0.4778210177   -0.1889649791
C       -0.0857320147   -1.2072806939    3.4894055362
O       -5.5854881203   -2.4799841268   -0.7416900173
S       -0.4270723480    0.3988697407    2.7447551829
H       -5.3214553263    0.3592711181    2.0307738914
H       -3.0482213815   -2.2319735175   -0.5729586180
H       -3.2560685513    1.0595218338    3.1414179479
H       -0.9723048729   -1.4911738813    0.5249911124
H       -0.1184325737    2.4164358146    3.9764959158
H       -1.4243226539    1.3076173644    4.7242396998
H        1.3633553325    1.6665082718    1.8232544257
H        0.9256222952    0.1765412408    0.7822964325
H       -6.3761700446    0.5378700427   -0.3639254451
H       -7.3246152615   -0.5036710715    0.7347495525
H       -7.3874940739   -0.7640495308   -1.0236529367
H        0.8090139491   -1.1172212624    4.1085102803
H       -0.9323260465   -1.5038918917    4.1112937982
H        0.0866319148   -1.9469090122    2.7065927451
27   

C       -4.3875705203   -0.1039791785    1.7675957417
C       -3.0968796649   -1.5019768800    0.2700915651
C       -3.2110747069    0.3075976610    2.3988528725
C       -1.9187346377   -1.0702860463    0.8917520560
C       -4.3422949139   -1.0194268138    0.7050634066
C       -1.9629969200   -0.1708118170    1.9728613867
C       -0.7045156604    1.5014212685    3.9997284512
C        0.7343918375    0.8523929190    1.6805606024
C       -5.5737723868   -1.4689099375   -0.0301289147
C       -6.6083132631   -0.4171163194   -0.3813399113
C       -0.0461270494   -1.1859743836    3.4840644078
O       -5.6368972905   -2.5813721766   -0.5377584455
S       -0.4303255853    0.4254124387    2.7722530773
H       -5.3363730341    0.2911922366    2.1136793872
H       -3.0431784015   -2.2013589265   -0.5588132335
H       -3.2681356020    1.0197357559    3.2169554495
H       -0.9640581145   -1.4339505270    0.5246904629
H       -0.1476170516    2.4281531890    4.0340179799
H       -1.4192564834    1.2790673638    4.7800777093
H        1.3202315310    1.7463156619    1.8488664464
H        0.9008828154    0.2643874698    0.7890745622
H       -6.1139471423    0.5193757526   -0.6533955882
H       -7.2679536059   -0.2450668960    0.4727296893
H       -7.2084792755   -0.7562414376   -1.2305460581
H        0.8551621949   -1.0883292490    4.0924369492
H       -0.8777949183   -1.5105674195    4.1121086118
H        0.1301763825   -1.9084407253    2.6862409745
27   

C       -4.4124576182   -0.1441426810    1.8727960220
C       -3.1494055623   -1.4691470829    0.2894700850
C       -3.2230478728    0.2745107665    2.4742019534
C       -1.9581641773   -1.0311687692    0.8814500039
C       -4.3862697554   -1.0286118448    0.7852454381
C       -1.9816708276   -0.1653763909    1.9906281956
C       -0.6847395561    1.4779884406    4.0170089823
C        0.6901172006    0.9055653884    1.6391528210
C       -5.6419919912   -1.4758773783    0.0858991540
C       -6.5306625868   -0.3907090430   -0.4878215952
C       -0.0050751365   -1.1863944234    3.4161701292
O       -5.7961822252   -2.6422418375   -0.2513951339
S       -0.4336753285    0.4357145653    2.7559539239
H       -5.3583801339    0.2187178091    2.2601195068
H       -3.1155636196   -2.1440439087   -0.5603059043
H       -3.2655729083    0.9610746052    3.3147233921
H       -1.0100189836   -1.3641344094    0.4708856764
H       -0.1404645437    2.4119674450    4.0566238116
H       -1.3713878904    1.2263184622    4.8135344910
H        1.2678737951    1.8041313878    1.8106515940
H        0.8381064090    0.3406092257    0.7297152580
H       -5.9178108569    0.4120960060   -0.9064685021
H       -7.1726247452    0.0169455500    0.2968145338
H       -7.1586410282   -0.8051402399   -1.2815999403
H        0.9138614114   -1.0904912705    3.9978242672
H       -0.8117408385   -1.5375391736    4.0623281114
H        0.1548884162   -1.8872636560    2.5959443927
27   

C       -4.4162453797   -0.1440531676    1.9956557544
C       -3.2100508022   -1.4342683336    0.3439659231
C       -3.2076247707    0.2645309764    2.5641618500
C       -1.9986351442   -1.0070455866    0.9026274142
C       -4.4280687429   -1.0032668278    0.8886396229
C       -1.9836661839   -0.1632873057    2.0288347300
C       -0.6196546282    1.4382284735    4.0442771479
C        0.6720139342    0.9209769836    1.6078988009
C       -5.7204695383   -1.4390049440    0.2419886151
C       -6.4470653211   -0.3930635208   -0.5772041361
C        0.0428623844   -1.2112172622    3.3622467403
O       -6.0147074687   -2.6225848160    0.1468224968
S       -0.4108357896    0.4239835647    2.7530681533
H       -5.3498834223    0.2059158773    2.4229350014
H       -3.2063698646   -2.0949273354   -0.5172212227
H       -3.2221995758    0.9327882671    3.4202447643
H       -1.0650412073   -1.3318768610    0.4539879843
H       -0.0768162442    2.3729824256    4.0849240228
H       -1.2771631231    1.1671713193    4.8588668329
H        1.2530721406    1.8176203550    1.7783555909
H        0.7895190765    0.3759289137    0.6820449562
H       -5.7264885451    0.2230143380   -1.1217712795
H       -7.0406526813    0.2457397839    0.0813446606
H       -7.1116883400   -0.8792976541   -1.2969259140
H        0.9806221850   -1.1257399777    3.9147542179
H       -0.7409372005   -1.5787171272    4.0272209998
H        0.1765008724   -1.8933717780    2.5218128878
27   

C       -4.4218070163   -0.1299596762    2.0714733692
C       -3.2555117368   -1.3273542539    0.3272788027
C       -3.2015281406    0.2527983271    2.6321868919
C       -2.0313406213   -0.9274020529    0.8792829497
C       -4.4606999716   -0.9138963362    0.9108675281
C       -1.9902492372   -0.1401260798    2.0447423250
C       -0.5783592362    1.3797827174    4.0917513318
C        0.6633350414    0.9460461991    1.6129447751
C       -5.7796197262   -1.3516149503    0.3156984732
C       -6.3687779973   -0.4433651550   -0.7417305889
C        0.0540107472   -1.2454057325    3.2988721590
O       -6.3777750025   -2.3378525676    0.7217147062
S       -0.4011807639    0.4137087208    2.7596951109
H       -5.3476877347    0.1801803364    2.5446310362
H       -3.2667644462   -1.9500148472   -0.5611267967
H       -3.1983906991    0.8705417787    3.5254642508
H       -1.1074913960   -1.2306380035    0.3966047471
H       -0.0281060856    2.3087564246    4.1572574254
H       -1.2229049312    1.0830124359    4.9077494557
H        1.2535616263    1.8321510796    1.8056622617
H        0.7602182052    0.4351466480    0.6655473426
H       -5.7593983906   -0.4869687358   -1.6480308145
H       -6.3947270364    0.5864352140   -0.3757435568
H       -7.3876060493   -0.7618805502   -0.9800633293
H        1.0031190154   -1.1858013159    3.8351612347
H       -0.7187512859   -1.6325472427    3.9656749857
H        0.1660686768   -1.8967401074    2.4313001886
27   

C       -4.4381840716   -0.1044276097    2.1163044441
C       -3.2957234790   -1.2187368276    0.3057521522
C       -3.2118800759    0.2650094111    2.6719512985
C       -2.0647071020   -0.8327950559    0.8531127796
C       -4.4952186106   -0.8308238447    0.9190062281
C       -2.0084843341   -0.0931414269    2.0483281097
C       -0.5688466675    1.3602507583    4.1262907824
C        0.6429074283    1.0032939853    1.6199717510
C       -5.8240149354   -1.2863909270    0.3672960829
C       -6.3018510717   -0.6052973810   -0.8974944316
C        0.0479125840   -1.2375327619    3.2424058546
O       -6.5890055341   -1.9668708947    1.0367810102
S       -0.4109104941    0.4383314254    2.7610673072
H       -5.3590100387    0.1686388990    2.6218696857
H       -3.3141639005   -1.8101207279   -0.6034181037
H       -3.1990291779    0.8418345605    3.5920562301
H       -1.1467803348   -1.1120610760    0.3452939818
H       -0.0126387014    2.2835115216    4.2170124428
H       -1.2071694475    1.0404291701    4.9384709353
H        1.2400488580    1.8794958263    1.8353434878
H        0.7260718829    0.5240403652    0.6549392536
H       -5.8036633202   -1.0440872654   -1.7654166751
H       -6.0749155523    0.4633139895   -0.8545399199
H       -7.3828197775   -0.7332293176   -1.0039113534
H        1.0038131460   -1.1961554845    3.7682503645
H       -0.7170572135   -1.6439619722    3.9067477700
H        0.1475043449   -1.8616315809    2.3535729513
27   

C       -4.4480313046   -0.0620227677    2.1443861245
C       -3.3335113577   -1.1196901758    0.2851788194
C       -3.2141372017    0.2880603461    2.6950250896
C       -2.0943823818   -0.7526115026    0.8277437995
C       -4.5260980413   -0.7493738575    0.9242020106
C       -2.0202011430   -0.0515507298    2.0446663179
C       -0.5494909281    1.3308135508    4.1502097957
C        0.6273923441    1.0554956023    1.6170613336
C       -5.8642697420   -1.1891262629    0.3924812833
C       -6.2258831995   -0.7560313169   -1.0135567274
C        0.0510712265   -1.2359088731    3.1728473410
O       -6.7240957900   -1.6373091445    1.1391855293
S       -0.4124949359    0.4550805907    2.7527488226
H       -5.3609141595    0.1964700527    2.6721078952
H       -3.3612016058   -1.6831868548   -0.6411453596
H       -3.1886824846    0.8352877212    3.6327874181
H       -1.1837620918   -1.0169434640    0.2991994349
H        0.0111692533    2.2486788210    4.2650043931
H       -1.1788758467    0.9860182368    4.9591528569
H        1.2302708324    1.9221843102    1.8538969846
H        0.6950469828    0.6096358294    0.6349770822
H       -5.7534093488   -1.4207895730   -1.7406723620
H       -5.8869616549    0.2687967286   -1.1871284780
H       -7.3106070699   -0.7959511046   -1.1477620480
H        1.0142874193   -1.2121487282    3.6863097341
H       -0.7048794600   -1.6630517250    3.8345120898
H        0.1375950101   -1.8308815295    2.2629546218
27   

C       -4.4334811233   -0.0575023351    2.2242607273
C       -3.3602632500   -1.0355993572    0.3005023671
C       -3.1888903935    0.2789025046    2.7582884279
C       -2.1101696515   -0.6824116434    0.8274367398
C       -4.5415354679   -0.7020477168    0.9814922049
C       -2.0096337767   -0.0290591382    2.0682191402
C       -0.4957501996    1.2915105989    4.1834986045
C        0.6289611295    1.0926855166    1.6192394352
C       -5.8945311045   -1.1144417613    0.4730791262
C       -6.1818128733   -0.9302841964   -1.0044203437
C        0.0832442288   -1.2438777753    3.1171424764
O       -6.8095679089   -1.3682987718    1.2457741908
S       -0.3880566373    0.4588056947    2.7574747356
H       -5.3327792657    0.1815835011    2.7838618721
H       -3.4017450447   -1.5611553585   -0.6471805615
H       -3.1444449952    0.7919694275    3.7144686821
H       -1.2111264915   -0.9198519766    0.2672269257
H        0.0680065669    2.2052722009    4.3147097391
H       -1.1092226484    0.9229382566    4.9941707283
H        1.2371639433    1.9517843943    1.8697530135
H        0.6764712241    0.6765981957    0.6230353728
H       -5.7837222304   -1.7768035662   -1.5692090133
H       -5.7225339065   -0.0051804546   -1.3630531188
H       -7.2617694948   -0.8716740845   -1.1676418749
H        1.0568287628   -1.2354155467    3.6111536769
H       -0.6591387155   -1.6905813222    3.7812577154
H        0.1503862266   -1.8112205766    2.1881617368
27   

C       -4.2216338543    0.7045646312    1.5244521146
C       -3.6042148101   -1.5195377934    0.8303487125
C       -2.9480646744    0.9003774227    2.0600076289
C       -2.3187746280   -1.3163980557    1.3516330586
C       -4.5683908196   -0.5000482721    0.8896741957
C       -1.9788228730   -0.1072166597    1.9824619110
C       -0.0874268730    1.6927876036    3.2841720272
C        0.8914035924   -0.3520095337    1.6291074838
C       -5.9662549242   -0.6944620598    0.3764169724
C       -6.1806562670   -1.6567428589   -0.7774529522
C       -0.5191330181   -0.9913356491    3.9953079552
O       -6.8858794811    0.0222613652    0.7505040887
S       -0.2989622312    0.1816274025    2.6438649191
H       -4.9553340485    1.5011938736    1.6035444512
H       -3.8325591489   -2.4753711749    0.3723528074
H       -2.7119329364    1.8507653630    2.5296567899
H       -1.5794404165   -2.1065169712    1.2644817422
H        0.7842757737    2.2729508501    3.0129772291
H       -0.8019462745    2.1008969502    3.9858179702
H        1.7821875869    0.2470739672    1.4936875829
H        0.7807020285   -1.2765574819    1.0806679513
H       -6.2185453977   -2.6831240877   -0.4039114015
H       -5.3703616849   -1.5600579450   -1.5050806544
H       -7.1261118621   -1.4279165210   -1.2777514196
H        0.3794979407   -0.9758199433    4.6151666521
H       -1.3812021616   -0.6927030924    4.5947547068
H       -0.6667408092   -1.9938920403    3.5922857937
27   

C       -4.2140608685    0.7387814750    1.5172962353
C       -3.5870721371   -1.4616152696    0.7584611866
C       -2.9455750379    0.9197274278    2.0695279693
C       -2.3065550227   -1.2719376143    1.2969892197
C       -4.5563186571   -0.4484044176    0.8468584952
C       -1.9743560794   -0.0834913763    1.9694257538
C       -0.0977096386    1.6763228600    3.3458966806
C        0.8995083563   -0.3082255615    1.6295155213
C       -5.9440993839   -0.6186593543    0.2998003450
C       -6.2119255793   -1.7638552265   -0.6597871918
C       -0.5264896076   -1.0312606628    3.9615430581
O       -6.8295199010    0.1917226254    0.5426072093
S       -0.3001881566    0.1875941059    2.6524068012
H       -4.9463082514    1.5352133839    1.6107968959
H       -3.7985321861   -2.4035655050    0.2657607007
H       -2.7143239764    1.8563932076    2.5683037546
H       -1.5638268645   -2.0562736349    1.1888407106
H        0.7749065837    2.2672353544    3.1022243653
H       -0.8193829838    2.0588726072    4.0545778367
H        1.7899810365    0.2969773170    1.5221189961
H        0.7951380493   -1.2131628767    1.0481134935
H       -6.2148470590   -2.7127945125   -0.1173962348
H       -5.4496537571   -1.7862967058   -1.4431370153
H       -7.1890921463   -1.6270012154   -1.1321165736
H        0.3675536492   -1.0341099507    4.5881817141
H       -1.3938604679   -0.7556721651    4.5643485935
H       -0.6678248835   -2.0199687723    3.5235894987
27   

C       -4.2221695306    0.7695378425    1.4980511440
C       -3.5737315108   -1.4015995069    0.6760367570
C       -2.9613108521    0.9394712452    2.0708922911
C       -2.3009253110   -1.2223574258    1.2361144789
C       -4.5521734655   -0.3994649591    0.7899398255
C       -1.9833866096   -0.0547700890    1.9505197713
C       -0.1275183815    1.6757985066    3.3911397759
C        0.8948111381   -0.2586016423    1.6326737794
C       -5.9256826855   -0.5466895307    0.2006526628
C       -6.2678760456   -1.8241180250   -0.5443273111
C       -0.5508312593   -1.0488984725    3.9303060735
O       -6.7691633923    0.3332911216    0.3185545783
S       -0.3169499589    0.2052307995    2.6564486268
H       -4.9572179780    1.5618968798    1.6034473230
H       -3.7665863721   -2.3246797234    0.1420827596
H       -2.7403098417    1.8621953063    2.5994058317
H       -1.5511717544   -1.9970265860    1.1084179897
H        0.7448922803    2.2763902625    3.1715005463
H       -0.8576680745    2.0369159577    4.1023411628
H        1.7835421561    0.3530009644    1.5498281612
H        0.8003351713   -1.1483685671    1.0266894075
H       -6.1708774135   -2.6853655242    0.1217809317
H       -5.6071015733   -1.9439008427   -1.4069094048
H       -7.3006188777   -1.7758220740   -0.9018778691
H        0.3377558131   -1.0659446993    4.5644373514
H       -1.4242770147   -0.7920291653    4.5325738392
H       -0.6852843364   -2.0258005410    3.4645540860
27   

C       -4.1911899342    0.7779267924    1.4568356702
C       -3.5194672300   -1.3742824164    0.6032284418
C       -2.9428057792    0.9388792330    2.0588588784
C       -2.2586033746   -1.2034484310    1.1921544926
C       -4.5042528527   -0.3794008216    0.7230724694
C       -1.9596509780   -0.0503931331    1.9379433283
C       -0.1440818722    1.6508984929    3.4619663882
C        0.9249776821   -0.2172727027    1.6606317915
C       -5.8567386907   -0.5116397673    0.0845874935
C       -6.2946459247   -1.8770409638   -0.4136132894
C       -0.5480383866   -1.0931771945    3.9091987575
O       -6.6435663118    0.4262887752    0.0575031386
S       -0.3073288198    0.2023521541    2.6788376990
H       -4.9292670366    1.5680117836    1.5580527183
H       -3.6992368935   -2.2806132929    0.0366169373
H       -2.7342714950    1.8521200877    2.6085321503
H       -1.5026704550   -1.9712597281    1.0596575995
H        0.7256950150    2.2662895739    3.2752870221
H       -0.8893234137    1.9828266156    4.1717388256
H        1.8089175976    0.4048375048    1.6115440223
H        0.8481266682   -1.0873743740    1.0243384443
H       -6.1083758741   -2.6363322060    0.3504459705
H       -5.7537684507   -2.1310369763   -1.3288982475
H       -7.3663272599   -1.8623081849   -0.6326190586
H        0.3301218579   -1.1200931827    4.5573546406
H       -1.4342053562   -0.8646100611    4.5042106022
H       -0.6632930051   -2.0565932473    3.4113570600
27   

C       -4.2158032215    0.7548846534    1.4525683617
C       -3.5019315319   -1.3574016490    0.5359401149
C       -2.9774944801    0.9122974094    2.0764381835
C       -2.2512600901   -1.1902764579    1.1468489113
C       -4.5035223185   -0.3835481669    0.6811245663
C       -1.9789008294   -0.0593425867    1.9358816884
C       -0.2058087904    1.6155306818    3.5379037000
C        0.9115914411   -0.1767290479    1.6893595751
C       -5.8368665386   -0.5055728006    0.0008454661
C       -6.3846560537   -1.8965271660   -0.2626681008
C       -0.5756223318   -1.1467780874    3.8886535454
O       -6.5558027747    0.4714075510   -0.1657897770
S       -0.3391725858    0.1920326768    2.7047545173
H       -4.9654443746    1.5326322525    1.5636682317
H       -3.6689218728   -2.2406506006   -0.0703472052
H       -2.7878358217    1.8104303933    2.6569698866
H       -1.4821854550   -1.9414865009    0.9961027802
H        0.6580547689    2.2480118181    3.3836262671
H       -0.9648448768    1.9140606316    4.2478613876
H        1.7877282145    0.4580181895    1.6730788390
H        0.8544744231   -1.0254084283    1.0227643008
H       -6.1614339474   -2.5567485535    0.5796075953
H       -5.9421072358   -2.3031290508   -1.1755555450
H       -7.4702189718   -1.8478005292   -0.3881409789
H        0.2954523575   -1.1831747655    4.5458447031
H       -1.4716019096   -0.9502017074    4.4803558973
H       -0.6716161779   -2.0945561478    3.3577931291
27   

C       -4.2040442988    0.7715041882    1.4036704915
C       -3.4455602006   -1.3090920752    0.4516645659
C       -2.9792891091    0.9299351461    2.0538985499
C       -2.2080268796   -1.1409135697    1.0882429412
C       -4.4628448900   -0.3540081309    0.6051976206
C       -1.9653750406   -0.0256485749    1.9091491293
C       -0.2484370141    1.6282070218    3.5923702593
C        0.9305662243   -0.0807650989    1.7040710424
C       -5.7763609643   -0.4697080041   -0.1167952431
C       -6.4578904304   -1.8245601312   -0.1369137747
C       -0.5686666653   -1.1500626525    3.8476747924
O       -6.3977309521    0.5277959371   -0.4593349341
S       -0.3422712560    0.2307912077    2.7110299065
H       -4.9653597555    1.5381285350    1.5120721041
H       -3.5972715862   -2.1759741845   -0.1820433363
H       -2.8108317417    1.8176180985    2.6566433343
H       -1.4259583142   -1.8773403663    0.9316321438
H        0.6060137506    2.2807541598    3.4731946584
H       -1.0243069439    1.8896454519    4.2987374699
H        1.7952770176    0.5693765440    1.7234324828
H        0.8984778575   -0.9063035022    1.0073848823
H       -6.3134576673   -2.3313100658    0.8209275660
H       -6.0414519694   -2.4380180950   -0.9396326023
H       -7.5306684303   -1.6975362441   -0.3084497302
H        0.2935767502   -1.1904330772    4.5161937816
H       -1.4767389637   -0.9904390857    4.4319684959
H       -0.6375951547   -2.0819285199    3.2853960779
27   

C       -4.1849181963    0.7088492645    1.3707619735
C       -3.3570585118   -1.3266086806    0.3753639737
C       -2.9762017820    0.8780326441    2.0482835402
C       -2.1359378903   -1.1468190903    1.0395744483
C       -4.3983977144   -0.4013977464    0.5408214817
C       -1.9367081468   -0.0496615649    1.8966705818
C       -0.2924422366    1.5935736898    3.6617049847
C        0.9641304647   -0.0292273972    1.7475398715
C       -5.6904743889   -0.5369377405   -0.2206793346
C       -6.4898002691   -1.8063875157   -0.0059985335
C       -0.5487225405   -1.1971448967    3.8279527219
O       -6.2126258739    0.4327375773   -0.7539246699
S       -0.3355677982    0.2220326722    2.7368241974
H       -4.9672572111    1.4536817079    1.4796667908
H       -3.4805929646   -2.1761709690   -0.2875247356
H       -2.8393320894    1.7528329683    2.6772873100
H       -1.3328808695   -1.8588194675    0.8763675592
H        0.5491950055    2.2682525065    3.5806490192
H       -1.0887311813    1.8160197104    4.3586101837
H        1.8134276168    0.6386977337    1.8053633852
H        0.9647348964   -0.8325834612    1.0246461515
H       -6.4254081538   -2.1164540392    1.0403271422
H       -6.0994479306   -2.6029939002   -0.6439394652
H       -7.5397525510   -1.6317859094   -0.2578226018
H        0.3016485270   -1.2364098352    4.5115758776
H       -1.4712414598   -1.0772007800    4.3989182835
H       -0.5837835406   -2.1132574050    3.2373481400
27   

C       -4.1889375903    0.6730721922    1.3286177836
C       -3.3027936965   -1.3228581968    0.3001728804
C       -2.9933356714    0.8519803028    2.0272098625
C       -2.0950315696   -1.1320470028    0.9850630311
C       -4.3627136529   -0.4216210022    0.4710180611
C       -1.9318096795   -0.0502486647    1.8694915651
C       -0.3537702111    1.5774737931    3.7079820901
C        0.9695468654    0.0524983986    1.7590728471
C       -5.6446736539   -0.5849912032   -0.3096826779
C       -6.5731713647   -1.6943565590    0.1375361557
C       -0.5342686538   -1.2223751143    3.7814000425
O       -6.0404377346    0.2880243857   -1.0693269984
S       -0.3486575297    0.2364218862    2.7384131169
H       -4.9893875571    1.3972475771    1.4424018859
H       -3.4031137801   -2.1596713208   -0.3827573344
H       -2.8833085200    1.7145164834    2.6780660865
H       -1.2748553767   -1.8231241291    0.8171854627
H        0.4711116804    2.2756803708    3.6610589890
H       -1.1648943200    1.7562562932    4.4003089011
H        1.8007657315    0.7390464309    1.8511405827
H        0.9992666933   -0.7246659342    1.0086220580
H       -6.5846927575   -1.7548886272    1.2289962430
H       -6.2338756558   -2.6486464972   -0.2726156100
H       -7.5887400070   -1.4950250126   -0.2162161492
H        0.3085283505   -1.2591419456    4.4744922932
H       -1.4667294545   -1.1471151581    4.3437322451
H       -0.5352448886   -2.1199304746    3.1619720163
27   

C       -4.2082854137    0.6010466022    1.2988820364
C       -3.2460152111   -1.3239299654    0.2012285185
C       -3.0242275012    0.7910892682    2.0146399571
C       -2.0513021964   -1.1209179981    0.9046747917
C       -4.3294766277   -0.4541858033    0.3850354507
C       -1.9309735290   -0.0676064999    1.8299022919
C       -0.4193108560    1.5464609836    3.7343622496
C        0.9679327860    0.1183141858    1.7565825920
C       -5.6149615507   -0.6744051349   -0.3797598735
C       -6.6451603233   -1.5605455924    0.2877461745
C       -0.5229358076   -1.2584731958    3.7212687958
O       -5.7670371062   -0.2657242813   -1.5219230449
S       -0.3656205508    0.2358926435    2.7250678171
H       -5.0360924859    1.2866361534    1.4466059022
H       -3.3206370401   -2.1403004193   -0.5096693821
H       -2.9488696669    1.6269059338    2.7041260305
H       -1.2093479440   -1.7811262178    0.7210923362
H        0.3858068892    2.2687235888    3.7170317976
H       -1.2414444292    1.6810151461    4.4236315873
H        1.7786362530    0.8243741038    1.8788355364
H        1.0279198401   -0.6351578213    0.9840359069
H       -7.1074684269   -1.0256863726    1.1212516775
H       -6.1688187542   -2.4697453859    0.6637459442
H       -7.4199356499   -1.8374351448   -0.4329195081
H        0.3139791926   -1.2949001526    4.4214700686
H       -1.4622938581   -1.2247010958    4.2760499838
H       -0.4948177762   -2.1362472923    3.0746508772
27   

C       -4.2110877487    0.5283433339    1.3014848535
C       -3.1639766785   -1.3300375306    0.1640888181
C       -3.0404333737    0.7458448469    2.0317377461
C       -1.9839239990   -1.0983274772    0.8826967921
C       -4.2782694235   -0.5000400064    0.3514471683
C       -1.9122053805   -0.0636411258    1.8338648017
C       -0.4840413816    1.5541623566    3.7977751258
C        0.9770659884    0.2409634908    1.7940251624
C       -5.5526347132   -0.7931453204   -0.4023735752
C       -6.6777805187   -1.4133370126    0.4002738803
C       -0.4731180419   -1.2516162789    3.7047216556
O       -5.5776650065   -0.8106550891   -1.6251078033
S       -0.3680881750    0.2758976503    2.7527352651
H       -5.0689398952    1.1706967404    1.4694502901
H       -3.2066917805   -2.1357162472   -0.5620542991
H       -3.0041498850    1.5628163268    2.7465156711
H       -1.1170827328   -1.7235769664    0.6927409104
H        0.2906343855    2.3091219547    3.8078766656
H       -1.3158787256    1.6345790552    4.4838250993
H        1.7570958078    0.9756909940    1.9436830931
H        1.0742446695   -0.4873573125    1.0013466775
H       -7.2249068562   -0.6326190536    0.9343150329
H       -6.2734819077   -2.1278827071    1.1221140906
H       -7.3666231470   -1.9375769774   -0.2682051160
H        0.3582030592   -1.2741361129    4.4121352546
H       -1.4180566608   -1.2721692817    4.2505888017
H       -0.4031744989   -2.1087349306    3.0339802217
27   

C       -4.2214550460    0.4386139131    1.3291740631
C       -3.1124549210   -1.3531654813    0.1398591527
C       -3.0550989347    0.6788499060    2.0595360604
C       -1.9386246721   -1.0973500852    0.8599555651
C       -4.2548099593   -0.5660383003    0.3514405747
C       -1.8994451952   -0.0843653607    1.8361026037
C       -0.5179418374    1.5383996914    3.8281545379
C        0.9770094496    0.3175408690    1.7912999274
C       -5.5109527480   -0.9022391278   -0.4071604098
C       -6.7359247782   -1.2563795636    0.4126320418
C       -0.4141409170   -1.2640398841    3.6755608127
O       -5.4753176688   -1.1662004240   -1.6015906108
S       -0.3635208272    0.2863337619    2.7566357920
H       -5.1000812823    1.0452922804    1.5200419979
H       -3.1297102807   -2.1437911335   -0.6040755338
H       -3.0441018923    1.4774748029    2.7955536076
H       -1.0515165530   -1.6874515566    0.6519821815
H        0.2296566208    2.3199722981    3.8490479164
H       -1.3472872460    1.5751390676    4.5209006123
H        1.7313517788    1.0764684670    1.9514158437
H        1.0960501140   -0.3920943778    0.9847541396
H       -7.2494111587   -0.3438508515    0.7251100015
H       -6.4423339305   -1.8273017871    1.2974931141
H       -7.4216091561   -1.8625216853   -0.1862761378
H        0.4212379222   -1.2751321876    4.3784473999
H       -1.3550230430   -1.3270631039    4.2251711853
H       -0.3203671884   -2.1037331759    2.9859105421
27   

C       -4.2961855322    0.3516049019    1.3414200208
C       -3.1272404915   -1.3842180745    0.1243676548
C       -3.1325876048    0.6314708708    2.0621814845
C       -1.9577015984   -1.0869059365    0.8350603517
C       -4.3010067146   -0.6484120983    0.3566431149
C       -1.9499288525   -0.0832557930    1.8212025642
C       -0.6203620679    1.5624661831    3.8290463826
C        0.9055619801    0.4437472123    1.7570603026
C       -5.5420513108   -1.0362612518   -0.3973081660
C       -6.8409699635   -1.1209980262    0.3814338932
C       -0.3964272604   -1.2301036762    3.6259207497
O       -5.4769440667   -1.5054391804   -1.5262961197
S       -0.4223255145    0.3368785236    2.7343157045
H       -5.1934964282    0.9241653399    1.5491538735
H       -3.1166211633   -2.1705046261   -0.6244916317
H       -3.1456421332    1.4230324430    2.8057797902
H       -1.0498417667   -1.6390312794    0.6128599883
H        0.0925731979    2.3755600028    3.8568872355
H       -1.4432167926    1.5503188008    4.5303740677
H        1.6276686364    1.2320934001    1.9234801233
H        1.0472212863   -0.2462096385    0.9371848760
H       -7.2846615252   -0.1265105003    0.4728013590
H       -6.6555430410   -1.5299465261    1.3782109004
H       -7.5443238446   -1.7758175142   -0.1409500305
H        0.4443740458   -1.2163565134    4.3222568822
H       -1.3290283566   -1.3447327483    4.1812956515
H       -0.2710828783   -2.0527577449    2.9209108833
27   

C       -4.2787099917    0.2829966331    1.3649741887
C       -3.0656867710   -1.3854433415    0.0992538722
C       -3.1222108955    0.5729417340    2.0928886577
C       -1.9038174407   -1.0768773671    0.8177263131
C       -4.2621715046   -0.6938405679    0.3547484390
C       -1.9217279147   -0.1029500221    1.8324565826
C       -0.6370784020    1.5197886459    3.8864747762
C        0.9174271335    0.5027845048    1.7836417298
C       -5.4874695608   -1.0830761863   -0.4210336051
C       -6.8421701634   -0.9075195046    0.2405136241
C       -0.3378424426   -1.2600008679    3.6038929259
O       -5.4039916241   -1.6947989769   -1.4787114903
S       -0.4056317081    0.3309762423    2.7581765101
H       -5.1855496219    0.8324776412    1.5917377173
H       -3.0296860882   -2.1498158684   -0.6712359675
H       -3.1552632748    1.3432599695    2.8578802939
H       -0.9816522670   -1.5975110703    0.5790379648
H        0.0515591174    2.3525792244    3.9355356618
H       -1.4572867186    1.4637751751    4.5887947582
H        1.6160618695    1.3075085644    1.9705825768
H        1.0787707591   -0.1611990757    0.9461538485
H       -7.1632249758    0.1339905684    0.1582844027
H       -6.7879511277   -1.1927763460    1.2944865878
H       -7.5804675776   -1.5446948756   -0.2549328710
H        0.5021872126   -1.2441150964    4.3011086821
H       -1.2671312283   -1.4156837094    4.1548435346
H       -0.1906217242   -2.0581883894    2.8753667022
27   

C       -4.2962966782    0.1854993714    1.4149335197
C       -3.0580998122   -1.4288913767    0.1066182327
C       -3.1352460211    0.5018291976    2.1242750557
C       -1.8925465513   -1.0932515480    0.8066049127
C       -4.2734160238   -0.7826666104    0.3939489345
C       -1.9203058708   -0.1332887264    1.8335248649
C       -0.6487519769    1.5038523948    3.8829616841
C        0.8951088834    0.5650863787    1.7364878371
C       -5.4960897906   -1.1869897160   -0.3779003455
C       -6.8562215643   -0.7616630620    0.1442899676
C       -0.2655900915   -1.2622489074    3.5577418710
O       -5.4240101503   -1.9285555825   -1.3501053471
S       -0.4007902504    0.3367468584    2.7356282240
H       -5.2095020981    0.7107380426    1.6702789981
H       -3.0095149894   -2.1816701899   -0.6745110604
H       -3.1768319740    1.2622686825    2.8986916228
H       -0.9596124341   -1.5817846716    0.5431927756
H        0.0112549561    2.3597662948    3.9273517253
H       -1.4508242650    1.4108173936    4.6021224429
H        1.5688624792    1.3919225859    1.9181944753
H        1.0624352853   -0.0842775335    0.8887805437
H       -6.9989642021    0.3098711578   -0.0178041882
H       -6.9398018628   -0.9891059629    1.2102686199
H       -7.6419545525   -1.3049516896   -0.3887357748
H        0.5870546738   -1.2286495983    4.2388154655
H       -1.1784589340   -1.4550398656    4.1242175694
H       -0.1074889264   -2.0456091944    2.8155245469
27   

C       -4.3245497266    0.0955211295    1.5115962548
C       -3.0507774419   -1.4597438246    0.1661995464
C       -3.1613643982    0.4574027602    2.1949863396
C       -1.8842513742   -1.0781736065    0.8406441704
C       -4.2860644653   -0.8679406952    0.4859563786
C       -1.9280762623   -0.1243608190    1.8725833796
C       -0.6794620078    1.5609068023    3.8959891520
C        0.8525856371    0.6891751388    1.7130507188
C       -5.5055591273   -1.3108677551   -0.2699716271
C       -6.8432210348   -0.6783921397    0.0675495393
C       -0.1909591143   -1.1878535697    3.5560883709
O       -5.4431344073   -2.1685683436   -1.1422999411
S       -0.4090798837    0.4057991781    2.7415530461
H       -5.2515261935    0.5799818680    1.7956673487
H       -2.9876163584   -2.2059582744   -0.6201593737
H       -3.2167813394    1.2116489414    2.9745686292
H       -0.9380251350   -1.5258108176    0.5530787548
H       -0.0562837305    2.4446172165    3.9254769125
H       -1.4590184665    1.4330004688    4.6343147903
H        1.4938779659    1.5445319905    1.8795870453
H        1.0288905221    0.0467063043    0.8619316374
H       -6.8021414894    0.4001161837   -0.1061359246
H       -7.0993657165   -0.8766874218    1.1115487002
H       -7.6236357621   -1.1043598896   -0.5697976460
H        0.6746341922   -1.1211125687    4.2181082155
H       -1.0824420345   -1.4184599883    4.1421820295
H       -0.0181998032   -1.9628259303    2.8083421110
