25   
Generated by ForceBalance from scan.xyz: Frame 1 of 24
C        2.4635602926   -0.3268751253    0.3822132492
C        1.1920050387    0.1490441308    0.7155628392
C        0.2330574567   -1.9808463085    0.0636749688
C        7.7827891972   -3.0950096963   -1.5003243555
C        6.0178237521   -2.3587544435   -2.6289083033
C        7.1754486479   -3.0993385599   -2.7899628894
C        2.6393195274   -1.6242638373   -0.1195676490
C        0.0860163878   -0.6809814715    0.5536922040
C        1.5028255953   -2.4435909519   -0.2719265075
C        4.9478030608   -1.2640321404   -0.6398303026
N        7.0559595499   -2.4188226160   -0.6122768394
N        5.9924321357   -1.9589745923   -1.3117776114
N        7.7075381746   -3.6561139820   -3.9709905798
O        3.8434324481   -2.1640789249   -0.4555644840
Cl      -1.5159156033   -0.0968641618    0.9697393954
Cl       1.6870030942   -4.0645680973   -0.8959702536
H        3.3182002086    0.3226935634    0.5341643398
H        1.0702335209    1.1547540524    1.1041032673
H       -0.6287834099   -2.6270171517   -0.0621283591
H        8.7184804237   -3.5512828964   -1.1989238321
H        5.2252387295   -2.1003551766   -3.3176722540
H        5.3429914337   -0.9299701881    0.3225601208
H        4.6146759950   -0.4099149190   -1.2405464078
H        6.9915534755   -3.8519030055   -4.6632065637
H        8.2285717650   -4.5078066043   -3.7874218567
25   
Generated by ForceBalance from scan.xyz: Frame 2 of 24
C        1.8001083120   -2.5687957065   -1.9938100708
C        0.4667679866   -2.2053294098   -2.1850202421
C        0.5078776734   -0.9950610388   -0.0737302261
C        7.1227405708   -3.6573425564   -2.8265783499
C        6.9552779741   -2.8952884485   -0.7487660289
C        7.7426595198   -3.7090008310   -1.5442445437
C        2.5007395278   -2.1598220981   -0.8541469823
C       -0.1665878830   -1.4204445582   -1.2189488423
C        1.8424549658   -1.3671253451    0.0988016904
C        4.8073279143   -1.6647159317   -1.1600359056
N        6.0379843480   -2.8836938417   -2.8226816122
N        5.9563815186   -2.4048742987   -1.5596364558
N        8.9477413423   -4.3645622905   -1.2151203526
O        3.7965695542   -2.5747022796   -0.6689659944
Cl      -1.8439609454   -0.9565605386   -1.4410656281
Cl       2.7017101995   -0.8381805586    1.5296438940
H        2.3219798541   -3.1827806816   -2.7220774973
H       -0.0743936394   -2.5280185863   -3.0683325131
H        0.0080516450   -0.3866051166    0.6718675037
H        7.4385946855   -4.1435804412   -3.7424228989
H        7.0204440843   -2.6276110735    0.2970835080
H        5.0781950042   -0.9691598461   -0.3604080823
H        4.4297924681   -1.1240136471   -2.0303541878
H        9.0580465682   -5.2339218997   -1.7276339816
H        9.0231392169   -4.5579602541   -0.2216069501
25   
Generated by ForceBalance from scan.xyz: Frame 3 of 24
C        2.0649120282   -2.3574237909   -2.0135440337
C        0.7207961352   -2.1606512338   -2.3288972770
C        0.3487827515   -1.2267575687   -0.1130238303
C        6.8591068225   -3.8544187923   -2.7521061647
C        7.0137261876   -2.7440769780   -0.8361155776
C        7.6504374204   -3.7270313572   -1.5741457006
C        2.5695116036   -1.9864970775   -0.7608434832
C       -0.1261783715   -1.5988389886   -1.3706420650
C        1.7011049839   -1.4161271300    0.1814596511
C        4.8656972805   -1.4797050584   -1.1725066390
N        5.8159971313   -3.0248549763   -2.7403786076
N        5.9310000836   -2.3362947640   -1.5813817569
N        8.8642026247   -4.3896814918   -1.2964384636
O        3.8801009163   -2.2242003961   -0.4316004337
Cl      -1.8229368966   -1.3555758772   -1.7480692151
Cl       2.3155986145   -0.9285610109    1.7441124740
H        2.7427958246   -2.8142538388   -2.7297394828
H        0.3320509421   -2.4522191299   -3.2990327615
H       -0.3147476479   -0.7888824134    0.6245324993
H        7.0236418850   -4.5073008540   -3.6015859858
H        7.2359046118   -2.3094892819    0.1290464473
H        5.2641283071   -0.7010104453   -0.5154272564
H        4.4198475019   -1.0359142440   -2.0638624533
H        8.8753461293   -5.3329629686   -1.6714455021
H        9.0644199918   -4.4294859000   -0.3022373427
25   
Generated by ForceBalance from scan.xyz: Frame 4 of 24
C        2.2619047018   -2.2632414717   -1.9119580149
C        0.9163664603   -2.2133615652   -2.2765880089
C        0.3588690344   -1.3436378505   -0.0764989596
C        6.6110486160   -3.9167500855   -2.7353195220
C        7.0166960929   -2.7610709629   -0.8839615871
C        7.5025654854   -3.8226841587   -1.6283102581
C        2.6737176147   -1.8411824698   -0.6408512120
C       -0.0249112666   -1.7555599695   -1.3526115123
C        1.7108733267   -1.3822364495    0.2709594736
C        4.9658629934   -1.3175323319   -1.0986542364
N        5.6498439460   -2.9949787329   -2.6762650198
N        5.9192168411   -2.2796076886   -1.5596426683
N        8.6711560558   -4.5835219533   -1.4181951749
O        3.9838123427   -1.9194256867   -0.2419104345
Cl      -1.7233044036   -1.6997775593   -1.7946218419
Cl       2.2026255058   -0.8454534032    1.8607171710
H        3.0077736666   -2.6482802826   -2.6023286898
H        0.6007638741   -2.5428868672   -3.2610692701
H       -0.3762388885   -0.9878430698    0.6369159132
H        6.6472986111   -4.6106575201   -3.5672163313
H        7.3552941875   -2.3155286150    0.0416086795
H        5.4888486860   -0.5659868855   -0.5015364501
H        4.4946860945   -0.8538572050   -1.9658973758
H        8.5680990203   -5.5372080024   -1.7503966043
H        8.9497364984   -4.6037681912   -0.4424675226
25   
Generated by ForceBalance from scan.xyz: Frame 5 of 24
C        2.8022916233   -2.5062622571   -2.4017836352
C        1.6088610506   -2.6696269653   -3.1077176650
C        0.4233891201   -3.0275461271   -1.0194156429
C        7.2381670763   -2.9760131086   -2.8562979145
C        7.1226294912   -2.7577361423   -0.6504055980
C        7.8993329118   -3.3280412550   -1.6452634275
C        2.8184243674   -2.5815739816   -1.0029939576
C        0.4290158221   -2.9299613955   -2.4112063355
C        1.6184021702   -2.8482753213   -0.3221700697
C        4.9419284130   -1.5001844887   -0.6722563006
N        6.1405679395   -2.2539048632   -2.6281488920
N        6.0883206379   -2.1093715112   -1.2839207393
N        9.1248356801   -4.0136216345   -1.5201533056
O        3.9614842695   -2.4546433321   -0.2556228711
Cl      -1.0756032652   -3.1462350882   -3.2907685725
Cl       1.6119759717   -2.9527956688    1.4234943534
H        3.7329020045   -2.3450503626   -2.9378813125
H        1.6029422112   -2.6112664047   -4.1912347827
H       -0.4951650638   -3.2300835490   -0.4797862859
H        7.5297938540   -3.2130386202   -3.8729210481
H        7.2192133109   -2.7566513612    0.4268492603
H        5.2634862725   -0.9954365004    0.2412224461
H        4.5209655377   -0.7808556079   -1.3759110751
H        9.2459604113   -4.7120702387   -2.2466965994
H        9.2295475580   -4.4590739588   -0.6143023331
25   
Generated by ForceBalance from scan.xyz: Frame 6 of 24
C        2.8795674571   -2.4078462573   -2.3334722027
C        1.7458696486   -2.7690083215   -3.0661758523
C        0.5534155979   -3.2234129342   -1.0038022014
C        7.1542563526   -2.8540698994   -2.8885931264
C        6.9466450387   -2.8199549431   -0.6784563765
C        7.7073897510   -3.3851398238   -1.6890807489
C        2.8591550046   -2.4346008855   -0.9333790881
C        0.5921626893   -3.1736732173   -2.3980801794
C        1.6851945577   -2.8522693429   -0.2800630113
C        4.9568760863   -1.2739600988   -0.6621470725
N        6.1307006035   -2.0354542263   -2.6400714826
N        6.0201876016   -2.0106808263   -1.2920180999
N        8.8397767193   -4.2169488690   -1.5770598519
O        3.9237573944   -2.1028545007   -0.1357662279
Cl      -0.8342536631   -3.6364944219   -3.3122907303
Cl       1.6341508957   -2.9038121829    1.4674876685
H        3.7879527694   -2.1348807319   -2.8600442337
H        1.7709106429   -2.7469408204   -4.1507515728
H       -0.3439665317   -3.5387798992   -0.4830476143
H        7.4691521595   -3.0330232413   -3.9100292994
H        6.9839486940   -2.9267286585    0.3971536622
H        5.3528617754   -0.7497680679    0.2094721542
H        4.5717296936   -0.5597586839   -1.3922051810
H        8.9137950082   -4.8670127086   -2.3531345679
H        8.8535789361   -4.7390078034   -0.7069094829
25   
Generated by ForceBalance from scan.xyz: Frame 7 of 24
C        2.9767618412   -2.2557714398   -2.3146591084
C        1.9255423272   -2.8005242357   -3.0576574308
C        0.7732995054   -3.3875235862   -1.0070894437
C        7.1251744145   -2.7365536051   -2.8798327917
C        6.7127162656   -2.8914271603   -0.7032084772
C        7.4796696476   -3.4613726285   -1.7071920911
C        2.9351234378   -2.2620379539   -0.9149628395
C        0.8325900153   -3.3610399760   -2.4015483948
C        1.8231843821   -2.8396516360   -0.2736570486
C        5.0007988938   -1.0395275387   -0.6662166765
N        6.2054766897   -1.8036339167   -2.6249104505
N        5.9693419735   -1.9000977402   -1.2969896067
N        8.4638949724   -4.4642527390   -1.5983088273
O        3.9054290950   -1.7449051071   -0.0965881378
Cl      -0.4882933089   -4.0527090820   -3.3294911418
Cl       1.7487653263   -2.8705215361    1.4737386777
H        3.8361557298   -1.8558750163   -2.8401229475
H        1.9686762377   -2.7933817644   -4.1418251876
H       -0.0763743172   -3.8243926014   -0.4941275594
H        7.5051221935   -2.8606749968   -3.8871104425
H        6.6278574154   -3.1100355025    0.3525427393
H        5.4516454950   -0.5275337784    0.1857437888
H        4.6804499338   -0.3135944072   -1.4171671216
H        8.5232876557   -5.0334258997   -2.4366477686
H        8.3147405452   -5.0699065842   -0.7977870864
25   
Generated by ForceBalance from scan.xyz: Frame 8 of 24
C        3.2271757849   -2.7358342313   -2.3989531150
C        2.4213478698   -3.4238222868   -3.3099048670
C        1.5232192619   -4.7701951621   -1.5049570409
C        7.2708795073   -2.5391863694   -2.8788305675
C        6.7630875553   -3.2645303046   -0.8418551161
C        7.5987995667   -3.5335445130   -1.9143333899
C        3.1918075098   -3.0539379832   -1.0359189907
C        1.5748515857   -4.4335732473   -2.8585765824
C        2.3328684435   -4.0816614405   -0.6042158068
C        4.9723469198   -1.5375160422   -0.4309396662
N        6.3023467201   -1.7300044247   -2.4447402502
N        6.0089146816   -2.1735767207   -1.2016014201
N        8.6148078389   -4.5047192957   -2.0134299008
O        3.9191261219   -2.4215258161   -0.0618393861
Cl       0.5611975109   -5.3037576106   -3.9985530443
Cl       2.2750280639   -4.5085709846    1.0912880662
H        3.8984364654   -1.9711743500   -2.7705523436
H        2.4603964333   -3.1726051899   -4.3647047290
H        0.8660485487   -5.5570581355   -1.1515763180
H        7.7016011367   -2.3885966713   -3.8617605570
H        6.6359976076   -3.7518927753    0.1151772103
H        5.3595424498   -1.1870862167    0.5274172589
H        4.6148451676   -0.6915082890   -1.0240281772
H        8.7350622538   -4.8356182354   -2.9654055652
H        8.4527899285   -5.3004591181   -1.4048378849
25   
Generated by ForceBalance from scan.xyz: Frame 9 of 24
C        5.8695333704   -3.0978561129    1.5133552121
C        6.2019511062   -4.3628339455    1.9956188613
C        4.0102743254   -5.1794932988    1.3273077128
C        7.7950622882   -2.1407100876   -1.6668368096
C        5.8556338909   -3.1671867508   -1.9904040283
C        7.2175180553   -3.3489665752   -2.1529024315
C        4.6196201381   -2.8520567672    0.9371523212
C        5.2665894988   -5.3948014710    1.8942545624
C        3.6968108684   -3.9046971532    0.8509146898
C        4.4765483676   -1.3624415836   -0.9211282702
N        6.8691681124   -1.2851720365   -1.2320703523
N        5.6883099756   -1.9064741114   -1.4570275749
N        7.8962826192   -4.4307653230   -2.7504939000
O        4.3249971073   -1.5828017452    0.4965033207
Cl       5.6708144103   -6.9963113747    2.4892202600
Cl       2.1242740881   -3.6317843233    0.1286026954
H        6.5788704581   -2.2776180307    1.5557171010
H        7.1748184775   -4.5483179295    2.4387290429
H        3.2857169695   -5.9833636241    1.2577888254
H        8.8433661269   -1.8667660875   -1.6323687652
H        5.0121074804   -3.8066275368   -2.2124383048
H        4.4830186148   -0.2796541004   -1.0343498698
H        3.6349150244   -1.8070351860   -1.4587852734
H        7.3683646689   -5.2959094395   -2.6967868426
H        8.8125626014   -4.5785342114   -2.3395559602
25   
Generated by ForceBalance from scan.xyz: Frame 10 of 24
C        5.8106719331   -2.9598708712    1.6191087061
C        6.2341219139   -4.2020389895    2.0903357339
C        4.2469663656   -5.2295331385    1.1335103528
C        7.7508987104   -2.3331257135   -1.5369292220
C        5.7358193173   -3.1270869613   -2.0213212316
C        7.0781432689   -3.4461787926   -2.1191385682
C        4.6158779518   -2.8301254551    0.9053989601
C        5.4467774476   -5.3271548277    1.8387350261
C        3.8427483545   -3.9769746244    0.6697275701
C        4.5013771461   -1.2499751090   -0.9036811087
N        6.8967312913   -1.4064500967   -1.1037374313
N        5.6703597679   -1.8839157298   -1.4268202891
N        7.6741268702   -4.5640479169   -2.7376955108
O        4.2180130228   -1.5861975163    0.4787544119
Cl       5.9698989588   -6.9013238333    2.4146598927
Cl       2.3535708585   -3.8472640282   -0.2446485285
H        6.4084183553   -2.0685341496    1.7778774486
H        7.1648900110   -4.2972767152    2.6397183046
H        3.6384870326   -6.1071047069    0.9449091670
H        8.8183871151   -2.1775376423   -1.4304928251
H        4.8444524009   -3.6587959198   -2.3248653187
H        4.6421337142   -0.1702541641   -0.9108700893
H        3.6471758173   -1.5386840311   -1.5212167292
H        7.0533032825   -5.3665158491   -2.7652804760
H        8.5392160369   -4.8342253727   -2.2804263413
25   
Generated by ForceBalance from scan.xyz: Frame 11 of 24
C        5.7360281411   -2.8860168864    1.6570001553
C        6.2266928721   -4.0930756190    2.1544029235
C        4.3879256561   -5.2722140205    1.0812749366
C        7.7241890041   -2.4545635904   -1.4560508147
C        5.6850804454   -3.0878494764   -2.0633102994
C        7.0071154439   -3.4896254361   -2.1234346176
C        4.5805058137   -2.8490843060    0.8714946056
C        5.5464766540   -5.2757047049    1.8587862359
C        3.9183467130   -4.0540962507    0.5894129533
C        4.5306601926   -1.1918768402   -0.8917520832
N        6.9132356869   -1.4977284301   -1.0073130580
N        5.6724820058   -1.8755230408   -1.4053891127
N        7.5564145792   -4.6117708133   -2.7755923841
O        4.0901937687   -1.6500459599    0.4185338788
Cl       6.1559404043   -6.8048361492    2.4707959520
Cl       2.4887700362   -4.0338524999   -0.4227521709
H        6.2516434724   -1.9524218147    1.8550070231
H        7.1267100439   -4.1164139652    2.7599113826
H        3.8639347071   -6.1947366774    0.8570440306
H        8.7937251756   -2.3762256138   -1.2983194497
H        4.7755471154   -3.5450742215   -2.4275351131
H        4.7752040552   -0.1368253863   -0.7760629312
H        3.6969908520   -1.3283940973   -1.5850292628
H        6.8852977343   -5.3664252169   -2.8767061706
H        8.3783094775   -4.9651061645   -2.2958837073
25   
Generated by ForceBalance from scan.xyz: Frame 12 of 24
C        5.6673591808   -2.8518248925    1.6556307987
C        6.2094601014   -4.0175792117    2.1959489325
C        4.4667286206   -5.3217540843    1.1081128679
C        7.7163212957   -2.5355629993   -1.4154867412
C        5.6667470606   -3.0490049053   -2.0975897187
C        6.9713240019   -3.5059304961   -2.1467042924
C        4.5343335488   -2.8979644384    0.8375637763
C        5.6017559334   -5.2425212270    1.9154317444
C        3.9475055405   -4.1446222161    0.5682900173
C        4.5681310784   -1.1623845043   -0.8612800872
N        6.9369276556   -1.5664548273   -0.9388533078
N        5.6904732935   -1.8702911895   -1.3821983434
N        7.4871023196   -4.6204656782   -2.8370210601
O        3.9762786138   -1.7505428160    0.3345285911
Cl       6.2746261481   -6.7200131455    2.5855353054
Cl       2.5517889419   -4.2301826174   -0.4853460364
H        6.1273038640   -1.8885826476    1.8482600058
H        7.0920644341   -3.9760046483    2.8255915565
H        3.9999883575   -6.2769653803    0.8947026260
H        8.7839768409   -2.5122472490   -1.2301996534
H        4.7465700549   -3.4507406899   -2.4987256971
H        4.8950339220   -0.1552391795   -0.6028638865
H        3.7734278661   -1.1358766472   -1.6101620535
H        6.7860035759   -5.3377071251   -2.9921812758
H        8.2797198124   -5.0329468570   -2.3553176506
25   
Generated by ForceBalance from scan.xyz: Frame 13 of 24
C        5.5994047788   -2.8368406795    1.6549961567
C        6.1591520166   -3.9639947117    2.2552331028
C        4.4961769978   -5.3613721481    1.1596907287
C        7.7410344490   -2.5960795593   -1.4136812634
C        5.6805520503   -2.9902330260   -2.1420739090
C        6.9682003812   -3.4916909462   -2.2086867098
C        4.4973250844   -2.9495856918    0.8008950647
C        5.5986520933   -5.2170016556    2.0019266882
C        3.9601560617   -4.2231609307    0.5558642640
C        4.6371130363   -1.1392520662   -0.8085663849
N        6.9921949332   -1.6300901661   -0.8841455607
N        5.7402445124   -1.8600886516   -1.3554015028
N        7.4492718051   -4.5808378776   -2.9612129381
O        3.9090468929   -1.8491901190    0.2312087663
Cl       6.2912557099   -6.6464938281    2.7513063984
Cl       2.6087813419   -4.3962995646   -0.5427801245
H        6.0246611634   -1.8549471732    1.8322821942
H        7.0176903001   -3.8704667516    2.9119492000
H        4.0673860072   -6.3382775897    0.9658561570
H        8.8066382162   -2.6240409227   -1.2179033738
H        4.7489657556   -3.3359671411   -2.5685723567
H        5.0317013701   -0.2095191293   -0.3958107221
H        3.8941151002   -0.9358054864   -1.5821652616
H        6.7237208929   -5.2601750321   -3.1664567829
H        8.2215146182   -5.0512522271   -2.4999609021
25   
Generated by ForceBalance from scan.xyz: Frame 14 of 24
C        5.5199552447   -2.8200725262    1.6618123745
C        6.0854971188   -3.8965232948    2.3439961627
C        4.5009108459   -5.3972786650    1.2719547403
C        7.7499906004   -2.6292546497   -1.4549348175
C        5.6793483525   -2.9448140869   -2.1941898318
C        6.9587912648   -3.4620029894   -2.2984848504
C        4.4524098953   -3.0107888060    0.7779603324
C        5.5665569949   -5.1766391509    2.1442894937
C        3.9586302592   -4.3102540826    0.5848980681
C        4.6697771428   -1.1565540003   -0.7516081751
N        7.0185518320   -1.6861014771   -0.8626357010
N        5.7618780672   -1.8669342440   -1.3406015016
N        7.4178876349   -4.5120218801   -3.1175311466
O        3.8485633959   -1.9699663395    0.1174127397
Cl       6.2665812077   -6.5419471488    2.9987493837
Cl       2.6548287845   -4.5839009287   -0.5494815956
H        5.9187490486   -1.8213193930    1.8017911954
H        6.9174045592   -3.7422090161    3.0230800055
H        4.1051877185   -6.3948934537    1.1171333830
H        8.8155532664   -2.6867939805   -1.2656729648
H        4.7390648381   -3.2519288011   -2.6311880296
H        5.1005990354   -0.3178358402   -0.2004454741
H        3.9767416066   -0.7985363693   -1.5150355608
H        6.6805746685   -5.1669842107   -3.3572245358
H        8.1861120842   -5.0202895728   -2.6910432454
25   
Generated by ForceBalance from scan.xyz: Frame 15 of 24
C        5.5603297300   -2.9787681046    1.4967952688
C        6.0453440465   -3.9806312798    2.3387174475
C        4.1889953586   -5.4101316969    1.7052569331
C        7.8748291221   -2.4613804856   -1.6549666604
C        5.8096648458   -2.9605192030   -2.3033326515
C        7.1308805566   -3.3199597803   -2.5138467023
C        4.3951491867   -3.1776294186    0.7468331676
C        5.3540686482   -5.1872433606    2.4395736623
C        3.7218858729   -4.4061891948    0.8575611529
C        4.6927195852   -1.3143451465   -0.7625994036
N        7.0794031176   -1.6483850691   -0.9581527211
N        5.8264795244   -1.9480359164   -1.3727923863
N        7.6515541532   -4.2527062850   -3.4323465080
O        3.8354477492   -2.2290205053   -0.0695662434
Cl       5.9547724395   -6.4529526851    3.4985884456
Cl       2.2786866878   -4.6930128604   -0.0886374385
H        6.1105742876   -2.0493837208    1.4105641304
H        6.9531631235   -3.8198224542    2.9106761483
H        3.6543534313   -6.3505060552    1.7808806286
H        8.9493018165   -2.4105679310   -1.5234813210
H        4.8832946594   -3.3389598435   -2.7136897772
H        5.0876291876   -0.5420127702   -0.0974593642
H        4.0377876664   -0.8665539710   -1.5121756396
H        6.9794272046   -4.9722720995   -3.6781379266
H        8.4985272840   -4.6945310639   -3.0892164517
25   
Generated by ForceBalance from scan.xyz: Frame 16 of 24
C        5.5876719193   -3.1726002474    1.4274919258
C        5.9802470679   -4.0821502042    2.4128990774
C        3.9436142797   -5.3498509541    2.0621197940
C        7.9716096105   -2.3614386674   -1.7854502943
C        5.9310227588   -2.9259149695   -2.4576720714
C        7.2692644432   -3.1674619599   -2.7254121749
C        4.3735794560   -3.3386426548    0.7501089214
C        5.1574260993   -5.1617390136    2.7250080160
C        3.5619120409   -4.4403360341    1.0782367145
C        4.7350617411   -1.4905992306   -0.7634634756
N        7.1365634466   -1.6866776662   -0.9926446578
N        5.8992258464   -2.0298734728   -1.4162903124
N        7.8317580144   -3.9541774835   -3.7502354194
O        3.8856521471   -2.4896392412   -0.2085927256
Cl       5.6468041893   -6.3093541719    3.9610176465
Cl       2.0449733956   -4.6794167792    0.2403132089
H        6.2518918575   -2.3538093850    1.1790053453
H        6.9254560296   -3.9473041251    2.9282838304
H        3.3022089718   -6.1906200190    2.3021699438
H        9.0426014897   -2.2524849596   -1.6612218130
H        5.0239285802   -3.3153770017   -2.8993912477
H        5.0958539794   -0.7872128441   -0.0083065813
H        4.0915549072   -0.9757171588   -1.4789903360
H        7.2021327050   -4.6827691049   -4.0705308426
H        8.7106537318   -4.3768394085   -3.4688115659
25   
Generated by ForceBalance from scan.xyz: Frame 17 of 24
C        5.5386128827   -2.5848080415    1.7866471127
C        5.6912791877   -3.3521920678    2.9449628756
C        3.3987442183   -4.1151963818    2.7470813381
C        8.1644671098   -2.2145106678   -1.4869797710
C        6.1017722485   -2.3960588291   -2.2896126212
C        7.4002861654   -2.8203729717   -2.5238189529
C        4.3169891353   -2.5660030013    1.1023765416
C        4.6231119654   -4.1103260325    3.4176447856
C        3.2534858356   -3.3452400261    1.5953838808
C        5.0443143674   -0.9380589179   -0.5236431950
N        7.4001312647   -1.4845896584   -0.6719988824
N        6.1495325630   -1.5952046274   -1.1741276298
N        7.8912755993   -3.5953762313   -3.5936612533
O        4.0614730204   -1.8402825990   -0.0319416635
Cl       4.8101525447   -5.0815996443    4.8688042850
Cl       1.7188750915   -3.3492618719    0.7558337434
H        6.3902246997   -2.0289817619    1.4119583319
H        6.6429514221   -3.3621488241    3.4660754668
H        2.5660191518   -4.7056544544    3.1129426899
H        9.2315246373   -2.2831547092   -1.3107496163
H        5.1719336455   -2.6007224948   -2.8025553969
H        5.4643775571   -0.3119808460    0.2670008433
H        4.4976862530   -0.3237776354   -1.2413271609
H        7.1812196459   -4.2002823495   -3.9934066233
H        8.6903652232   -4.1589720199   -3.3214604681
25   
Generated by ForceBalance from scan.xyz: Frame 18 of 24
C        5.5195135512   -2.7546025837    1.8488733748
C        5.6062428516   -3.3590234942    3.1057134917
C        3.2707770433   -3.9987695359    2.9613494182
C        8.1970746102   -2.3212666823   -1.5302707148
C        6.1924261107   -2.2788560139   -2.4838549820
C        7.4934158986   -2.6986689717   -2.7088969259
C        4.3098667939   -2.7503487097    1.1429818803
C        4.4830861590   -3.9759661189    3.6525665858
C        3.1908731050   -3.3849048586    1.7126534835
C        5.0387458696   -1.1756385360   -0.5335482507
N        7.3949564958   -1.7259652907   -0.6461189785
N        6.1802400693   -1.6924102989   -1.2405765286
N        8.0421347967   -3.2764131488   -3.8715692231
O        4.1354874040   -2.1870520966   -0.0947767649
Cl       4.5853466614   -4.7449429944    5.2282147046
Cl       1.6694714602   -3.4031528607    0.8500496336
H        6.4079842026   -2.3136623770    1.4094647810
H        6.5480179361   -3.3589038420    3.6447025181
H        2.3965764700   -4.4793837245    3.3864906169
H        9.2483820946   -2.4552686447   -1.3037409686
H        5.2976523104   -2.3501867557   -3.0872088864
H        5.4092991533   -0.5736070661    0.2980971571
H        4.4460280577   -0.5605434005   -1.2129838587
H        7.3475913601   -3.7647784099   -4.4274505583
H        8.8022134816   -3.9144522507   -3.6581793969
25   
Generated by ForceBalance from scan.xyz: Frame 19 of 24
C        5.5474274739   -2.8662174168    1.9294300583
C        5.5634772959   -3.2886939235    3.2600534566
C        3.2019628610   -3.8329422919    3.1150193974
C        8.2222303195   -2.4229189222   -1.6414521360
C        6.2519734301   -2.1801411614   -2.6344383088
C        7.5476424439   -2.6019591708   -2.8826203797
C        4.3614367594   -2.9030967726    1.1847112069
C        4.3910080116   -3.7696881617    3.8422016300
C        3.1927142387   -3.3947964309    1.7905199211
C        5.0594444956   -1.3999005312   -0.5591590575
N        7.4091094987   -1.9371991546   -0.7027379277
N        6.2166616870   -1.7742902530   -1.3208433342
N        8.1188990591   -3.0171205146   -4.1027798626
O        4.2874782358   -2.5256499583   -0.1318465768
Cl       4.4031708486   -4.3121881558    5.5124883297
Cl       1.7000401475   -3.4565654153    0.8814377250
H        6.4646029295   -2.5296193520    1.4551760640
H        6.4854903447   -3.2587337051    3.8314025879
H        2.2913627683   -4.2073108942    3.5695650357
H        9.2625832949   -2.6191062413   -1.4092076804
H        5.3762824774   -2.1332173275   -3.2674947013
H        5.3887434474   -0.7997364422    0.2900420195
H        4.3949256624   -0.8180997467   -1.2014444768
H        7.4332811293   -3.4137716439   -4.7372497027
H        8.8666015428   -3.6893480862   -3.9635162034
25   
Generated by ForceBalance from scan.xyz: Frame 20 of 24
C        5.5645720732   -2.9948686535    2.0545408734
C        5.4732397267   -3.2800479175    3.4169778215
C        3.0966035086   -3.7219739121    3.1588800954
C        8.2667501340   -2.4186037960   -1.7811465718
C        6.2682824959   -2.1412334754   -2.7067762067
C        7.5657291687   -2.5116283447   -3.0176624342
C        4.4295843693   -3.0517718660    1.2347780504
C        4.2381144673   -3.6442231526    3.9565898215
C        3.1983022473   -3.4174949809    1.7998061942
C        5.1189505763   -1.5927040491   -0.5357180616
N        7.4676367977   -2.0301424640   -0.7873208756
N        6.2587023443   -1.8392367177   -1.3646084576
N        8.1165859206   -2.8123183474   -4.2804628728
O        4.4992876061   -2.8175440656   -0.1151247847
Cl       4.1121819938   -4.0180596939    5.6674946713
Cl       1.7678053740   -3.4895971834    0.7970617700
H        6.5216351818   -2.7421025392    1.6058668243
H        6.3546381179   -3.2367774581    4.0483869494
H        2.1395628636   -4.0041811486    3.5836291740
H        9.3167615792   -2.6085813289   -1.5906810055
H        5.3764647894   -2.0629003830   -3.3136911919
H        5.4374696422   -1.0013791052    0.3232715940
H        4.3740490953   -1.0460538786   -1.1198471509
H        7.4231722769   -3.1675570795   -4.9308748421
H        8.8772979880   -3.4810932349   -4.2132714434
25   
Generated by ForceBalance from scan.xyz: Frame 21 of 24
C        5.6088645373   -3.1111865895    2.2413024019
C        5.3820531473   -3.2948343611    3.6049514298
C        3.0147797055   -3.6283303903    3.1553499610
C        8.3320436330   -2.3080628906   -1.9676399662
C        6.2503015906   -2.1813581044   -2.7278909458
C        7.5435045866   -2.4432137492   -3.1466846876
C        4.5519338541   -3.1717753081    1.3242710306
C        4.0835022779   -3.5558889959    4.0487180820
C        3.2551855468   -3.4265880568    1.7941049841
C        5.2436022245   -1.7493581950   -0.4640677922
N        7.5874675482   -1.9954720041   -0.9072614356
N        6.3246415398   -1.8971711109   -1.3834399356
N        8.0141978230   -2.6851338147   -4.4541034522
O        4.7803525029   -3.0399061460   -0.0221263191
Cl       3.7836464804   -3.8010110268    5.7606872390
Cl       1.9192750406   -3.4876160293    0.6675616645
H        6.6119560646   -2.9306704239    1.8639163476
H        6.2032770121   -3.2507602036    4.3127090459
H        2.0090697575   -3.8289854344    3.5078038726
H        9.4058207612   -2.4146867273   -1.8646621908
H        5.3087834004   -2.1695988072   -3.2599901671
H        5.5917748825   -1.1564221559    0.3828224430
H        4.4113135491   -1.2476087882   -0.9665538399
H        7.2999285835   -3.0842812358   -5.0546127022
H        8.8250613918   -3.2958976259   -4.4579793827
25   
Generated by ForceBalance from scan.xyz: Frame 22 of 24
C        4.1047793209   -2.0251031591    2.3353265342
C        3.4716694498   -1.6761800222    3.5285923794
C        1.5118642295   -0.9733925424    2.2681101330
C        7.8606228417   -2.7067551667   -1.6184039958
C        5.9119732335   -2.4354481826   -2.6454791742
C        7.1540419407   -3.0213076806   -2.8155576780
C        3.4613523028   -1.8592659190    1.1043184201
C        2.1775218358   -1.1532220797    3.4813269988
C        2.1630731446   -1.3265133758    1.0846329351
C        4.8415615439   -1.2245814182   -0.7262803086
N        7.1157061839   -1.9934705826   -0.7748671658
N        5.9386784048   -1.8129055581   -1.4176485245
N        7.6663376334   -3.6894170327   -3.9475835782
O        4.0900264006   -2.2582384630   -0.0496300662
Cl       1.3647190927   -0.7121868117    4.9722894036
Cl       1.3409421593   -1.1034673606   -0.4449215016
H        5.1088416181   -2.4392921666    2.3356129406
H        3.9727540727   -1.8102585512    4.4815686487
H        0.5066415053   -0.5675146142    2.2403977367
H        8.8804822365   -2.9640332081   -1.3563690289
H        5.0352993715   -2.4061375130   -3.2781534215
H        5.2380150785   -0.5151288694    0.0029821294
H        4.1860435881   -0.7185972142   -1.4410197114
H        6.9341119789   -4.1013238109   -4.5170875751
H        8.3293556255   -4.4142862961   -3.6915098060
25   
Generated by ForceBalance from scan.xyz: Frame 23 of 24
C        2.3972917162   -0.2569346373    0.2046234694
C        1.2224179521    0.1035179857    0.8718743165
C        0.2509849786   -2.0440307885    0.3081123716
C        7.5451146288   -3.2842253889   -1.3206038657
C        6.2127246789   -2.2533876298   -2.7666788844
C        7.2769665615   -3.1361463075   -2.7126915801
C        2.5206948031   -1.5109428582   -0.4100437842
C        0.1576571321   -0.7914686813    0.9197952045
C        1.4253837058   -2.3966296999   -0.3509306756
C        4.8159702320   -1.1467653635   -0.9976907945
N        6.7102031300   -2.5618521634   -0.5752154096
N        5.9132636210   -1.9240459099   -1.4638415861
N        8.0126236908   -3.6956491291   -3.7776319022
O        3.6225068027   -1.9390821886   -1.0853105780
Cl      -1.3233761500   -0.3500106273    1.7524443606
Cl       1.5427220538   -3.9628634953   -1.1147261992
H        3.2108623904    0.4582711132    0.1659196700
H        1.1415396454    1.0766727054    1.3447816665
H       -0.5783951230   -2.7418075760    0.3446115032
H        8.3174440470   -3.8788795123   -0.8467604069
H        5.6518035308   -1.8503074339   -3.5987487610
H        5.0262990444   -0.8793142488    0.0403228905
H        4.6992736064   -0.2483672670   -1.6146579518
H        7.4705158010   -3.7541567109   -4.6336859908
H        8.3666398705   -4.6193667787   -3.5495851908
25   
Generated by ForceBalance from scan.xyz: Frame 24 of 24
C        2.4303987756   -0.3150533164    0.2884216531
C        1.2036015557    0.1201982798    0.7997620914
C        0.2104178729   -2.0130643876    0.2189834493
C        7.6877521725   -3.1857984298   -1.4103757963
C        6.1241462860   -2.3046476034   -2.7175722589
C        7.2526531644   -3.1038273303   -2.7653252655
C        2.5663038173   -1.5974573815   -0.2618801933
C        0.1027084614   -0.7302477444    0.7620203834
C        1.4345424156   -2.4380898077   -0.2891702004
C        4.8626815642   -1.2372381996   -0.8281837065
N        6.8897328885   -2.5039922201   -0.5906052367
N        5.9507353059   -1.9563192298   -1.3967533992
N        7.9037858410   -3.6423184276   -3.8941090517
O        3.7197856964   -2.1032873622   -0.7780869645
Cl      -1.4419573495   -0.1952231480    1.4015021965
Cl       1.5691350877   -4.0399448935   -0.9723424965
H        3.2771931134    0.3599055281    0.3317032728
H        1.1131152098    1.1145303138    1.2244268932
H       -0.6470209607   -2.6764066329    0.1890233262
H        8.5521195312   -3.7063665985   -1.0148594818
H        5.4429348129   -1.9714846964   -3.4885286903
H        5.1628323197   -0.9326198620    0.1775367880
H        4.6241065271   -0.3621304158   -1.4440051163
H        7.2742491636   -3.7698630441   -4.6799434320
H        8.3526840548   -4.5286882727   -3.6857786921
