27   

C       -1.6593596116   -0.4133495792    1.7487758869
C       -0.5849642001   -0.6254035559    0.8657761888
C       -2.4634225512   -1.4907436782    2.1526087488
C       -0.3101825656   -1.9135653282    0.3831925430
C       -2.1789835454   -2.7713264451    1.6663714719
C       -1.1217147855   -2.9713621922    0.7980984738
C       -2.8842639800   -4.0204127819    1.9707027824
C       -2.2416826896   -7.1384680975    2.7179635747
C       -2.7253462448   -8.2178324353    3.4071552909
C       -2.8697131865   -6.4889223063    1.5006027502
C       -3.6649704999   -8.2393293566    4.5758054572
N       -2.3453978774   -5.1457411948    1.3860062615
O       -3.8742217412   -4.0699520732    2.6867370414
O       -1.3416802049   -4.9652515034   -1.0488717200
O        0.2263889139   -5.3419455286    0.8257121292
S       -1.0255553273   -4.7216312204    0.3663237484
Br      -2.7333506056   -8.8260520245    6.2248019786
H       -1.8673908528    0.5840900481    2.1204924262
H        0.0351853340    0.2084507028    0.5562038112
H       -3.2947697798   -1.3431767166    2.8353039086
H        0.5176666052   -2.0869606841   -0.2983500300
H       -1.1585270978   -7.0635793413    2.6961792630
H       -1.9765640208   -8.9959537036    3.5194408994
H       -2.6334780696   -7.0694609576    0.6014667757
H       -3.9607048462   -6.4685017040    1.6041180514
H       -4.5022897462   -8.9113636386    4.3657398092
H       -4.0698180303   -7.2346399169    4.7352484654
27   

C       -1.6973665943   -0.5310371310    1.9749698320
C       -0.6662572254   -0.6359342889    1.0237183643
C       -2.4514530560   -1.6620395176    2.3260353366
C       -0.3844595487   -1.8702793368    0.4203783271
C       -2.1616027402   -2.8883834664    1.7184122162
C       -1.1457681553   -2.9824781723    0.7846127928
C       -2.8211855686   -4.1790066608    1.9454924525
C       -2.0467048257   -7.2578584616    2.4638357716
C       -2.6513860754   -8.1200049121    3.3244266904
C       -2.7363604555   -6.6033213883    1.2859784176
C       -3.6231053601   -7.7431052720    4.4029102130
N       -2.3048346613   -5.2263028227    1.2147031500
O       -3.7597066364   -4.3262078157    2.7159202568
O       -1.3822592367   -4.8109565667   -1.2233829080
O        0.2511833219   -5.3148344063    0.5624830726
S       -1.0269966163   -4.6849515950    0.1979532427
Br      -2.8999368612   -8.2023688457    6.1903415606
H       -1.9108924250    0.4253521070    2.4397081820
H       -0.0851612328    0.2390605026    0.7545142681
H       -3.2494990055   -1.5965524634    3.0592942449
H        0.4098886412   -1.9614123534   -0.3149545664
H       -0.9939213703   -7.4459923909    2.2768618623
H       -2.0382964183   -8.9730077260    3.5982784972
H       -2.4660451532   -7.1261193173    0.3613576561
H       -3.8253531220   -6.6655146276    1.3938983762
H       -4.5722914727   -8.2633976704    4.2448363780
H       -3.8177901809   -6.6659986749    4.3620136030
27   

C       -1.7310400668   -0.5682628373    2.0081708081
C       -0.7074725455   -0.6644460457    1.0479166632
C       -2.4760051537   -1.7044703220    2.3615419146
C       -0.4241129697   -1.8952766559    0.4379654622
C       -2.1842876120   -2.9271756954    1.7474740554
C       -1.1761137867   -3.0129767247    0.8048627518
C       -2.8337312803   -4.2221203126    1.9773988572
C       -1.9698437133   -7.3268292010    2.4280738735
C       -2.5490292786   -8.0933561616    3.3796831040
C       -2.7368325766   -6.6469510953    1.3158672500
C       -3.5952139010   -7.6188412301    4.3421323613
N       -2.3078018142   -5.2683010698    1.2518244380
O       -3.7741938968   -4.3719096067    2.7446649710
O       -1.4354324543   -4.8394023494   -1.2017454403
O        0.2374206486   -5.3322953471    0.5501214296
S       -1.0535681408   -4.7134963186    0.2127069908
Br      -3.0243815823   -7.9531781867    6.2101292791
H       -1.9456406090    0.3852638901    2.4782925891
H       -0.1333671682    0.2146158096    0.7769907497
H       -3.2678816600   -1.6458920501    3.1020702359
H        0.3645148909   -1.9795517484   -0.3042801314
H       -0.9407636241   -7.5648570992    2.1772835824
H       -1.9319012673   -8.9031146781    3.7563227585
H       -2.5279783364   -7.1457632325    0.3625311461
H       -3.8167204595   -6.7130041011    1.4916882626
H       -4.5384454183   -8.1380347567    4.1489707548
H       -3.7666900110   -6.5459903805    4.2083557817
27   

C       -1.7179398170   -0.5735015322    2.0086303086
C       -0.6833888182   -0.6719348988    1.0604858598
C       -2.4717169373   -1.7073345067    2.3502194681
C       -0.3977516838   -1.9027164761    0.4512057989
C       -2.1771277935   -2.9298924441    1.7371698732
C       -1.1584214565   -3.0183311359    0.8066751535
C       -2.8331950909   -4.2225975422    1.9585860770
C       -1.9139682684   -7.3823695393    2.3238916754
C       -2.4306474994   -8.0452002873    3.3765805128
C       -2.7408742559   -6.6487247590    1.2927283878
C       -3.5128365205   -7.5291997523    4.2711740701
N       -2.2874322150   -5.2758346801    1.2577871465
O       -3.7976506195   -4.3610837995    2.6972646288
O       -1.4254351564   -4.8447984138   -1.1982583572
O        0.2569364633   -5.3359784910    0.5444325387
S       -1.0368822117   -4.7190959931    0.2144268904
Br      -2.9942501400   -7.7389032430    6.1718165580
H       -1.9340642060    0.3796923457    2.4787654038
H       -0.1024840675    0.2053896788    0.7986156605
H       -3.2717984324   -1.6473369718    3.0818010937
H        0.3994125841   -1.9885409537   -0.2816401856
H       -0.9200781297   -7.6754086225    2.0001955614
H       -1.7945881907   -8.8118758963    3.8078722676
H       -2.6037015152   -7.1109740030    0.3084616832
H       -3.8084114750   -6.7048430993    1.5345667126
H       -4.4405801561   -8.0774997964    4.0836179351
H       -3.6984380636   -6.4705705149    4.0692528589
27   

C       -1.9746284117   -0.7051142766    2.1278070654
C       -0.7381250168   -0.8435092305    1.4714454912
C       -2.8418551197   -1.8033824965    2.2363729753
C       -0.3632883842   -2.0791618183    0.9232898546
C       -2.4575894913   -3.0302425201    1.6851660747
C       -1.2402544628   -3.1586617367    1.0433240768
C       -3.2052697786   -4.2911373793    1.7031462143
C       -2.1571289470   -7.5717021588    2.0648653072
C       -2.3978157972   -7.7584959459    3.3742464612
C       -3.0106001597   -6.7364544473    1.1307532560
C       -3.0757600150   -6.7780394567    4.2713249015
N       -2.5450305985   -5.3655514223    1.1467613113
O       -4.3344210901   -4.3878931698    2.1644678127
O       -1.0815189382   -4.9399803269   -1.0059820783
O        0.1087651016   -5.5288182558    1.0749214520
S       -1.0476458578   -4.8570650860    0.4623834403
Br      -1.7881036505   -5.3828869016    4.8456854277
H       -2.2588330934    0.2507486403    2.5540367558
H       -0.0693370604    0.0059360507    1.3898619962
H       -3.7970148663   -1.7140946021    2.7446199780
H        0.5904736491   -2.1971960704    0.4172891290
H       -1.4571074137   -8.2515057659    1.5906147817
H       -1.9065299783   -8.5941190003    3.8614230895
H       -2.9492973324   -7.1353676751    0.1120193667
H       -4.0618773640   -6.7927161922    1.4350935660
H       -3.4542020556   -7.2967030453    5.1572931890
H       -3.9304546790   -6.3180354887    3.7676710674
27   

C       -1.9824676968   -0.6791606954    2.1361271512
C       -0.7310950248   -0.8400350395    1.5139916069
C       -2.8600414243   -1.7688968511    2.2459719091
C       -0.3521149809   -2.0894911604    1.0007674890
C       -2.4708765993   -3.0097113390    1.7306223932
C       -1.2398321628   -3.1602181760    1.1209447461
C       -3.2258442303   -4.2655691341    1.7606043076
C       -2.2348967566   -7.6262595508    2.0767802459
C       -2.3187894407   -7.6971203570    3.4142937828
C       -3.0630308951   -6.7144554534    1.1926525079
C       -2.9906768944   -6.6989378142    4.2918111794
N       -2.5512649357   -5.3612149114    1.2656003208
O       -4.3697837984   -4.3422661904    2.1879998365
O       -1.0728444900   -4.9894167249   -0.8851131964
O        0.1036714294   -5.5323883647    1.2162451178
S       -1.0473128370   -4.8725922659    0.5812032895
Br      -1.6900342931   -5.3144788189    4.8615850926
H       -2.2699975642    0.2872618914    2.5355075749
H       -0.0540011158    0.0027668984    1.4321168863
H       -3.8264702844   -1.6625971601    2.7290522935
H        0.6131911796   -2.2247484326    0.5217385915
H       -1.6186778209   -8.3648593307    1.5751860153
H       -1.7878618182   -8.5031114558    3.9097273655
H       -3.0242239301   -7.0673162254    0.1559312818
H       -4.1131110071   -6.7503222639    1.5040087662
H       -3.3790766228   -7.2040533304    5.1812728649
H       -3.8400556355   -6.2353752052    3.7835416718
27   

C       -2.0084018166   -0.7522402616    1.9731365279
C       -0.7347617565   -0.9230989619    1.4008554511
C       -2.8864898509   -1.8421428244    2.0758692538
C       -0.3341375842   -2.1826675335    0.9303561963
C       -2.4753337955   -3.0929804818    1.6037289738
C       -1.2228888002   -3.2534410801    1.0424914397
C       -3.2266320581   -4.3506070923    1.6371185045
C       -2.2692075878   -7.7437422477    1.9987581456
C       -2.2338723811   -7.6932647892    3.3386759876
C       -3.0522741555   -6.8047697322    1.1019614710
C       -2.9553844133   -6.7084033778    4.1876168472
N       -2.5283446593   -5.4574985253    1.2033324832
O       -4.3863557441   -4.4205532122    2.0209220839
O       -0.9916360223   -5.1302380988   -0.9125934795
O        0.1280297996   -5.6158854115    1.2335451841
S       -1.0075547210   -4.9776743250    0.5506183254
Br      -1.7076631719   -5.2869999157    4.7833593837
H       -2.3127706213    0.2219462117    2.3398534245
H       -0.0572287902   -0.0801199204    1.3247578799
H       -3.8699912899   -1.7283588940    2.5213552309
H        0.6484545820   -2.3255522560    0.4903086109
H       -1.6943326083   -8.5239574857    1.5113722286
H       -1.6521346017   -8.4505655971    3.8535215690
H       -2.9848141053   -7.1459361501    0.0627556539
H       -4.1124218614   -6.8316034863    1.3781248305
H       -3.3521939123   -7.2184329368    5.0705249362
H       -3.8051244451   -6.2716970075    3.6569745268
27   

C       -1.9603479938   -0.3548633527    1.7552223562
C       -0.6739533345   -0.5417615646    1.2175268120
C       -2.8398477233   -1.4421896363    1.8718320549
C       -0.2619951004   -1.8148167546    0.7955624743
C       -2.4172886771   -2.7064714569    1.4481315386
C       -1.1524464483   -2.8827397694    0.9206265237
C       -3.1681543491   -3.9634501187    1.5039520217
C       -2.2552179313   -7.3651411131    1.9663081283
C       -2.1016192111   -7.1818079637    3.2863494365
C       -2.9901478444   -6.4281046657    1.0259263298
C       -2.8697100749   -6.2190266955    4.1176706388
N       -2.4592181547   -5.0829383966    1.1228553348
O       -4.3360386556   -4.0234193167    1.8639546353
O       -0.8784385379   -4.8199307944   -0.9690138067
O        0.1958233819   -5.2362246851    1.2146858789
S       -0.9253891594   -4.6213093906    0.4880141995
Br      -1.6850161826   -4.7433940064    4.7094611357
H       -2.2735466124    0.6297962988    2.0846299186
H        0.0046387458    0.2993259164    1.1307572248
H       -3.8331963976   -1.3160331635    2.2913912859
H        0.7304726958   -1.9700337794    0.3827116733
H       -1.7149726976   -8.1882315499    1.5109223739
H       -1.4639055189   -7.8817741685    3.8158896060
H       -2.8856228924   -6.7863682338   -0.0044581394
H       -4.0606358483   -6.4411754484    1.2600274000
H       -3.2525759181   -6.7357702269    5.0028228035
H       -3.7318143177   -5.8222174748    3.5752941034
27   

C       -2.0010888774   -0.5283485196    1.8594653133
C       -0.7087227684   -0.7163696103    1.3367091047
C       -2.8867404715   -1.6126195891    1.9547469340
C       -0.2972488085   -1.9873626018    0.9078059275
C       -2.4642560294   -2.8747670531    1.5247136973
C       -1.1941766425   -3.0522389630    1.0109338061
C       -3.2209397548   -4.1286398131    1.5605906596
C       -2.4339083145   -7.5649492623    1.9927746249
C       -2.1354359815   -7.3151813326    3.2784786854
C       -3.0652661811   -6.5799642881    1.0241176187
C       -2.8704591038   -6.3674081115    4.1556929217
N       -2.5117305107   -5.2496345457    1.1837672764
O       -4.3937534332   -4.1850813584    1.9048618568
O       -0.9173905574   -4.9729227002   -0.8950473299
O        0.1417038108   -5.4153283297    1.2908539215
S       -0.9720360018   -4.7878821623    0.5635289191
Br      -1.6636805244   -4.9081910031    4.7432082510
H       -2.3141765786    0.4546277146    2.1939902182
H       -0.0252324186    0.1223055849    1.2668264854
H       -3.8847768826   -1.4858965856    2.3628983220
H        0.6997446761   -2.1433234045    0.5063556157
H       -1.9792957567   -8.4429448743    1.5466065438
H       -1.4769012882   -8.0173589907    3.7788258523
H       -2.8963738202   -6.9207341988   -0.0037334065
H       -4.1502477176   -6.5670678141    1.1776921193
H       -3.2265195182   -6.9022266610    5.0412938694
H       -3.7478804987   -5.9573555008    3.6482031238
27   

C       -2.0837709194   -0.4478346899    1.9526626738
C       -0.7878288691   -0.6395955208    1.4402464994
C       -2.9868808512   -1.5205493779    2.0026359367
C       -0.3904383496   -1.9026202478    0.9757399759
C       -2.5781274794   -2.7748354958    1.5378017994
C       -1.3048260585   -2.9560341278    1.0332482373
C       -3.3531175798   -4.0177400437    1.5285287749
C       -2.7331514256   -7.4575460379    1.9556633202
C       -2.2824635722   -7.1638540464    3.1889700416
C       -3.2287078952   -6.4540594694    0.9251220536
C       -2.9451420919   -6.2134980658    4.1228458576
N       -2.6556942382   -5.1377965610    1.1279431175
O       -4.5288666234   -4.0677774296    1.8637185703
O       -1.0418441756   -4.8212291641   -0.9293468397
O       -0.0062365523   -5.3480508429    1.2487878650
S       -1.1044817914   -4.6804430230    0.5338169558
Br      -1.6767370162   -4.7926586408    4.6722758705
H       -2.3860354731    0.5287579582    2.3147172535
H       -0.0906196290    0.1899374952    1.4061782921
H       -3.9877199751   -1.3914040856    2.4031084795
H        0.6092898881   -2.0614412871    0.5823685486
H       -2.3939738672   -8.4001910629    1.5398532701
H       -1.6231293452   -7.8886144798    3.6549254008
H       -2.9747852186   -6.8092432871   -0.0801561419
H       -4.3224261756   -6.4030424515    0.9713863016
H       -3.2668053664   -6.7562033151    5.0167833291
H       -3.8377013270   -5.7750740774    3.6675735270
27   

C       -2.2743743493   -0.6511538739    1.8374738326
C       -0.9922014960   -0.8231414518    1.2849874780
C       -3.1777900523   -1.7242159664    1.8668040815
C       -0.6092346330   -2.0663802077    0.7587532613
C       -2.7830296793   -2.9588270386    1.3412488066
C       -1.5238135494   -3.1205540866    0.7959987444
C       -3.5582319045   -4.2008778533    1.3070402814
C       -3.1309207005   -7.5813606233    1.7597626086
C       -2.5016044253   -7.2935892970    2.9190447598
C       -3.4490403754   -6.6155622683    0.6299927328
C       -2.9889088981   -6.3056740845    3.9238525774
N       -2.8701240299   -5.3057103042    0.8526513469
O       -4.7238914109   -4.2646338475    1.6737960909
O       -1.3318320499   -4.9076397646   -1.2465237243
O       -0.2193150259   -5.5208076733    0.8697532318
S       -1.3410060586   -4.8242088879    0.2222933917
Br      -1.5835813689   -4.9671561095    4.3245570220
H       -2.5653970775    0.3099672722    2.2470419168
H       -0.2942890786    0.0063010449    1.2679058327
H       -4.1675439178   -1.6109457699    2.2984334532
H        0.3800552019   -2.2098636572    0.3344148363
H       -2.9871956838   -8.5980417823    1.4103531846
H       -1.8944374923   -8.0870254568    3.3420308546
H       -3.0831801250   -7.0263557502   -0.3180051785
H       -4.5369626386   -6.5265566095    0.5319697283
H       -3.2401971790   -6.8315227409    4.8498700611
H       -3.8984216811   -5.8112650908    3.5705646805
27   

C       -2.3235394114   -0.7263394404    1.8624179190
C       -1.0395000532   -0.8697648695    1.3061201664
C       -3.2213229310   -1.8043894669    1.8479998739
C       -0.6488582140   -2.0892379034    0.7321067887
C       -2.8191775614   -3.0153357868    1.2752494569
C       -1.5576185628   -3.1490077078    0.7261390413
C       -3.5869385199   -4.2599808068    1.1948665527
C       -3.2988511479   -7.4975833474    1.7644863918
C       -2.5669806135   -7.2211404201    2.8736703033
C       -3.4332301542   -6.6682588729    0.5019962997
C       -2.9247399161   -6.2130769203    3.9160057398
N       -2.8942283186   -5.3371058965    0.6866856739
O       -4.7473437358   -4.3510013076    1.5724256958
O       -1.3393303921   -4.8560786012   -1.3823265932
O       -0.2457628881   -5.5493624130    0.7188457128
S       -1.3619001024   -4.8287736137    0.0883863431
Br      -1.4409267833   -4.9288540655    4.1847678869
H       -2.6201836304    0.2163230182    2.3091278650
H       -0.3458391946   -0.0367882441    1.3234547512
H       -4.2121776783   -1.7134542018    2.2823128572
H        0.3421379953   -2.2107438719    0.3049429821
H       -3.3509180210   -8.5560870451    1.5340255282
H       -2.0291022522   -8.0659823528    3.2908797038
H       -2.9255638722   -7.1713937327   -0.3288895931
H       -4.4924314544   -6.5946912244    0.2303052149
H       -3.1160431833   -6.7263851054    4.8632076333
H       -3.8400091258   -5.6826936475    3.6362584102
27   

C       -2.1639110737   -0.5936558656    2.1245499587
C       -0.8588941402   -0.7055542656    1.6115577503
C       -3.0413670338   -1.6868194451    2.0620506816
C       -0.4261179718   -1.9091732816    1.0349159095
C       -2.5984783017   -2.8813121800    1.4847573027
C       -1.3147164961   -2.9844380938    0.9820601920
C       -3.3442631372   -4.1353115876    1.3500709275
C       -3.1001779352   -7.1964923238    2.0838930992
C       -2.3578907102   -6.8922710436    3.1893321627
C       -3.0793036541   -6.5504790748    0.7129626751
C       -2.7244262811   -5.9153196324    4.2602966305
N       -2.6348333056   -5.1752973344    0.7899091388
O       -4.5053405854   -4.2602691031    1.7159551395
O       -0.9150294384   -4.6463517810   -1.1352198606
O       -0.0008198856   -5.3824024333    1.0356680832
S       -1.0617556706   -4.6494833697    0.3285367986
Br      -1.2831267736   -4.5782247154    4.4946349089
H       -2.4929808748    0.3368162119    2.5739734253
H       -0.1816628750    0.1393429043    1.6644677551
H       -4.0487892462   -1.6194332415    2.4609304206
H        0.5811134175   -2.0067545510    0.6408214992
H       -3.2917360382   -8.2587808852    1.9791989131
H       -1.8317035562   -7.7407644350    3.6140392287
H       -2.4243357930   -7.1234215395    0.0466686068
H       -4.0858406121   -6.5790529207    0.2806704459
H       -2.8678774484   -6.4466648906    5.2060716114
H       -3.6650591028   -5.4148440489    4.0088381131
