25   

C       -0.2394542309   -5.5681374142   -3.7790585699
C        0.0371698591   -4.7721854008   -2.5916559707
C       -0.4762089015   -4.7867473583   -4.8794523002
C       -0.0320743856   -1.0294296959   -1.8552106488
C        0.2404608229   -2.3720519471   -1.8595235012
C       -0.0001617853   -3.4173698093   -2.8393193816
C        0.4367672173   -0.5476013390   -0.5688651470
C       -2.2025692118   -0.3142746524   -2.9222601443
C        0.3307969711    0.8454420782   -0.0217312410
C       -0.6832568503   -0.1624552474   -2.9153015233
N        0.9374679177   -1.5381735899    0.1208474639
N        0.8188893528   -2.6537362351   -0.6506856914
O       -2.7561086152   -0.5384169386   -3.9863029275
O       -2.8670044233   -0.1639147917   -1.7486627719
S       -0.3707744533   -3.0698988982   -4.5109459257
H       -0.2590964736   -6.6526579968   -3.7915475437
H        0.2371221319   -5.2145181387   -1.6235391841
H       -0.7057016134   -5.1694993956   -5.8672813186
H       -0.5539614797    1.3487714622   -0.4195613551
H        0.2574786152    0.8139217741    1.0691786104
H        1.2215027796    1.4166055328   -0.2961436084
H       -0.2779034874   -0.3949025557   -3.9020403138
H       -0.4505386397    0.8884055446   -2.7297404896
H        1.1440010609   -3.5779749016   -0.3797190080
H       -3.8067504454   -0.3117038870   -1.9414169825
25   

C       -0.2555248769   -5.4380138384   -4.0003945132
C       -0.1126029916   -4.6790522450   -2.7661238516
C       -0.1104075307   -4.6471887742   -5.1106667058
C        0.0582133432   -1.0041052691   -1.9074920431
C        0.3398292724   -2.3406023283   -1.9612229066
C        0.1325320198   -3.3438956784   -2.9927386050
C        0.4917198042   -0.5759478248   -0.5902256421
C       -2.1106295145   -0.2647423980   -2.9049894915
C        0.3750193645    0.7945903714    0.0089257480
C       -0.5933416742   -0.1148992048   -2.9450578493
N        0.9684913460   -1.5968542090    0.0732782657
N        0.8747282051   -2.6797696321   -0.7478975860
O       -2.6548034083   -0.9382226961   -3.7645141923
O       -2.7859372254    0.4097604346   -1.9409660737
S        0.2027502305   -2.9659761450   -4.6950898536
H       -0.4583645542   -6.5029335914   -4.0377893029
H       -0.2070205396   -5.1233331340   -1.7824824184
H       -0.1834443210   -5.0033143312   -6.1317548138
H       -0.4737896215    1.3331051792   -0.4195748184
H        0.2349153249    0.7183529071    1.0910150735
H        1.2907060920    1.3590333724   -0.1853658000
H       -0.2231668233   -0.3445453252   -3.9457148981
H       -0.3418338189    0.9308588084   -2.7527646850
H        1.1987817981   -3.6150722246   -0.5141164519
H       -3.7244245698    0.1892815292   -2.0566516357
25   

C       -0.3044381211   -5.3574895780   -4.0030346868
C       -0.2513703496   -4.5822795156   -2.7714652746
C        0.1189662827   -4.6320533602   -5.0876485198
C        0.0848225910   -0.9704016705   -1.8991121265
C        0.3992661791   -2.2969924972   -1.9443949881
C        0.2026457551   -3.3020727775   -2.9789424208
C        0.5154405718   -0.5232345921   -0.5869987850
C       -2.1300354973   -0.2407961694   -2.7812419641
C        0.4159804814    0.8578826859   -0.0094881316
C       -0.6179390183   -0.1331398973   -2.9454595470
N        1.0377500522   -1.5254091518    0.0726071456
N        0.9749828727   -2.6141193461   -0.7450194134
O       -2.7477000220   -0.9814680220   -3.5286021455
O       -2.7200070376    0.5372980607   -1.8396092209
S        0.5926513949   -2.9929134980   -4.6525641157
H       -0.6440417339   -6.3862352196   -4.0573423033
H       -0.5503451895   -4.9692223290   -1.8041725573
H        0.1562446593   -5.0120370522   -6.1020630587
H       -0.4937710431    0.9355529219    0.5919524170
H        1.2767245898    1.0551263038    0.6357566138
H        0.3823577557    1.6120407744   -0.7984773354
H       -0.3356116301   -0.4486217711   -3.9515733196
H       -0.3285500744    0.9155520798   -2.8494246036
H        1.3346422068   -3.5381378250   -0.5166785583
H       -3.6682130910    0.3297545881   -1.8664794551
25   

C       -0.3666271756   -5.3332134110   -4.0360281696
C       -0.3988747988   -4.5441299574   -2.8122416821
C        0.3017807722   -4.6905659067   -5.0482227424
C        0.0442352052   -1.0231702063   -1.8738628706
C        0.4144036417   -2.3321734013   -1.9144152642
C        0.2384271745   -3.3374744119   -2.9568747610
C        0.4981175983   -0.5410580044   -0.5831582290
C       -2.2094498471   -0.3009712754   -2.6522749298
C        0.3599005526    0.8444067821   -0.0254381458
C       -0.7104555422   -0.2429240924   -2.9260148760
N        1.0866597929   -1.5119776270    0.0688421048
N        1.0454399433   -2.6131347011   -0.7350036433
O       -2.8800777625   -1.1284533428   -3.2475357053
O       -2.7308508480    0.6079437695   -1.7910998696
S        0.9110374363   -3.1131745276   -4.5547314065
H       -0.8225744463   -6.3122907132   -4.1366461809
H       -0.8805360424   -4.8651267429   -1.8955818391
H        0.4398483421   -5.0960541164   -6.0438962482
H       -0.5009389358    0.8816669024    0.6474237190
H        1.2562080586    1.1081262042    0.5429860074
H        0.2146791161    1.5752146552   -0.8239242533
H       -0.5081861150   -0.6448827434   -3.9216248039
H       -0.3882327362    0.8010015385   -2.9264551988
H        1.4479185393   -3.5204063696   -0.5098521630
H       -3.6804691737    0.4141582098   -1.7298290402
25   

C       -1.1496602710   -5.0914346103   -4.3680675354
C       -1.3354992759   -4.2762715008   -3.1753014436
C        0.0960862108   -4.9239194995   -4.9210640309
C       -0.0759886903   -1.2525069367   -1.7352220713
C       -0.0727358126   -2.6112370407   -1.7546113880
C       -0.2230728286   -3.5303678158   -2.8823393920
C        0.1252608209   -0.8923095137   -0.3453425495
C       -1.7335302953    0.0929155885   -3.0152874682
C        0.2243157042    0.4883608118    0.2315479467
C       -0.2705113742   -0.3242645251   -2.9108818446
N        0.2315339121   -1.9773493865    0.3801405612
N        0.1138398266   -3.0380588155   -0.4703214631
O       -2.4886322561   -0.5885491107   -3.6895745956
O       -2.1137884175    1.2300001629   -2.3815461659
S        1.0835100374   -3.7768030735   -4.0191036225
H       -1.9108126147   -5.7485021579   -4.7748780997
H       -2.2496834056   -4.2455175239   -2.5929924163
H        0.4410089701   -5.4311328115   -5.8147148479
H       -0.7387970284    0.7730120344    0.6633217872
H        0.9787229118    0.5077482001    1.0230798749
H        0.4939558253    1.2146018989   -0.5384855865
H        0.0325386582   -0.8167485939   -3.8388569786
H        0.3509366332    0.5671117911   -2.7950444312
H        0.1706953028   -4.0181420493   -0.2013911300
H       -3.0662673860    1.3287450443   -2.5434410804
25   

C       -1.1351710774   -4.8979235547   -4.4607101315
C       -1.3161877538   -4.0350757335   -3.3013388746
C        0.1875237899   -5.0333844871   -4.8047376841
C       -0.0451087249   -1.2805773955   -1.7030233868
C        0.0409160556   -2.6362598419   -1.6980115104
C       -0.1225733426   -3.5723850782   -2.8116490179
C        0.1574016775   -0.8807025785   -0.3249483354
C       -1.8032920523   -0.0160060341   -2.9336711347
C        0.1901100284    0.5165397936    0.2182837862
C       -0.3256906940   -0.3923136120   -2.8916651455
N        0.3297991215   -1.9430874495    0.4207647086
N        0.2551344671   -3.0261930215   -0.4066000802
O       -2.6021108024   -0.8308228452   -3.3677400970
O       -2.1532266759    1.2217706249   -2.5046171044
S        1.2566299066   -4.1259307267   -3.7376274757
H       -1.9535407972   -5.3686158287   -4.9948262858
H       -2.2801947773   -3.7605041118   -2.8860846355
H        0.5435112972   -5.6254901106   -5.6399091172
H       -0.7818148451    0.7612522199    0.6547057501
H        0.9508413364    0.5940695129    1.0001382515
H        0.4135873154    1.2365234054   -0.5722934579
H       -0.0584164005   -0.9047453020   -3.8200159820
H        0.2789900753    0.5162720197   -2.8328914090
H        0.3472460885   -3.9974963778   -0.1162345654
H       -3.1193889630    1.2781768910   -2.5862825235
25   

C       -1.1343822565   -4.8317050621   -4.5417045285
C       -1.2992312900   -3.8926095568   -3.4408312935
C        0.1730962180   -5.2194091227   -4.7014495620
C       -0.0618985540   -1.3166614887   -1.7337476349
C        0.0752670196   -2.6694887443   -1.7163071596
C       -0.1133948575   -3.6243547523   -2.8065492069
C        0.1766908769   -0.8916983600   -0.3687324724
C       -1.8781302479   -0.0460308923   -2.8885903318
C        0.1822193849    0.5130818536    0.1558055536
C       -0.4058072703   -0.4448049362   -2.9192280955
N        0.4138760143   -1.9368249021    0.3830359999
N        0.3474586871   -3.0328222863   -0.4275135627
O       -2.7070214341   -0.8403961005   -3.3033012834
O       -2.1901815413    1.1909315308   -2.4295714320
S        1.2461820053   -4.4653622591   -3.5249730045
H       -1.9515073225   -5.1751412723   -5.1669870941
H       -2.2441058164   -3.4370704449   -3.1634266322
H        0.5167298136   -5.9079006932   -5.4648356623
H       -0.7840298852    0.7344171816    0.6166284171
H        0.9620642619    0.6242320369    0.9144157428
H        0.3611535941    1.2285909680   -0.6500816263
H       -0.1958033386   -0.9743972391   -3.8526795537
H        0.2123391911    0.4566406117   -2.9104866762
H        0.4774553525   -3.9966712958   -0.1269055968
H       -3.1577919932    1.2644003337   -2.4723583661
25   

C       -1.1225772670   -4.7940505279   -4.6099132235
C       -1.2790701857   -3.7806875857   -3.5758502000
C        0.1244652193   -5.3670655844   -4.5902207813
C       -0.1239103811   -1.3233177050   -1.7403978261
C        0.0481214302   -2.6742984023   -1.7347131845
C       -0.1481538487   -3.6357111447   -2.8124791643
C        0.1638476799   -0.8973718898   -0.3844280240
C       -1.9811385504   -0.0210042027   -2.8096162266
C        0.1629500862    0.5048555072    0.1473559155
C       -0.5172074361   -0.4417266732   -2.9046853092
N        0.4624542865   -1.9377783144    0.3511907894
N        0.3895953636   -3.0320217950   -0.4603460692
O       -2.8322390624   -0.7623914566   -3.2735689576
O       -2.2607600203    1.1830917411   -2.2532615501
S        1.1479569273   -4.7021112598   -3.3202999035
H       -1.9024467173   -5.0582143736   -5.3161057583
H       -2.1834805366   -3.2013822372   -3.4280404337
H        0.4523400277   -6.1396673044   -5.2761463743
H       -0.7907783017    0.7071562005    0.6417708490
H        0.9662665877    0.6263110638    0.8794518968
H        0.3020751225    1.2273830225   -0.6601166590
H       -0.3522037088   -0.9661830374   -3.8498955403
H        0.1108285226    0.4528061890   -2.9192723267
H        0.5592042432   -3.9926925758   -0.1694459324
H       -3.2273660952    1.2775050661   -2.2734476003
25   

C       -1.0723115247   -4.7318824318   -4.7064212690
C       -1.2054071210   -3.6606339088   -3.7292476489
C        0.0728014363   -5.4638434694   -4.5203988795
C       -0.1526572017   -1.3220138172   -1.7397712072
C        0.0384130219   -2.6726883389   -1.7614108733
C       -0.1577160718   -3.6249228291   -2.8423469620
C        0.1879409517   -0.9110740768   -0.3904789809
C       -2.0466322304   -0.0059062749   -2.7392043779
C        0.1942561274    0.4821607617    0.1651637559
C       -0.5814445963   -0.4134355940   -2.8718835919
N        0.5384236952   -1.9557013073    0.3146764792
N        0.4490549507   -3.0383987112   -0.5094492126
O       -2.8916068444   -0.6748867283   -3.3113497583
O       -2.3324618142    1.1175957068   -2.0369457075
S        1.0243376134   -4.8811960863   -3.1584293583
H       -1.7967473549   -4.9242133774   -5.4906010859
H       -2.0432581178   -2.9747999798   -3.7035834505
H        0.3670713370   -6.3052046156   -5.1372111019
H       -0.7458886360    0.6699137761    0.6903339059
H        1.0179801206    0.5968570657    0.8753727007
H        0.3054607685    1.2196378318   -0.6329453120
H       -0.4247463145   -0.9063490221   -3.8350849862
H        0.0361811844    0.4883267949   -2.8733845853
H        0.6531441998   -3.9989552923   -0.2412190013
H       -3.2986418896    1.2162446466   -2.0575086135
25   

C       -0.9745573410   -4.6716587895   -4.7682107117
C       -1.0817127826   -3.5435138861   -3.8542202383
C        0.0271187511   -5.5357287987   -4.4092335852
C       -0.1920525706   -1.2888785222   -1.7253308369
C        0.0185843682   -2.6392502899   -1.7586590364
C       -0.1543661962   -3.5911959605   -2.8407439155
C        0.1744101061   -0.8782507192   -0.3817116362
C       -2.1211246215   -0.0185835918   -2.7260666742
C        0.1684068503    0.5098870364    0.1877939268
C       -0.6382025327   -0.3639564877   -2.8387956124
N        0.5672364578   -1.9178104894    0.3069948468
N        0.4794530155   -2.9966102015   -0.5210043851
O       -2.9136168380   -0.6147093894   -3.4369927296
O       -2.4782195077    0.9815360046   -1.8838917054
S        0.8702058162   -5.0100136487   -2.9568834712
H       -1.6170727784   -4.8098299445   -5.6312596703
H       -1.8279159347   -2.7673801792   -3.9614014449
H        0.2777766984   -6.4403443601   -4.9512671156
H       -0.7646048510    0.6763947721    0.7324745965
H        1.0034018812    0.6314987861    0.8835655556
H        0.2520822532    1.2582780267   -0.6032058344
H       -0.4346926105   -0.8138722595   -3.8138171928
H       -0.0615633188    0.5634141703   -2.7991608243
H        0.7176500280   -3.9524426625   -0.2643199553
H       -3.4449863810    1.0570419286   -1.9405659254
25   

C       -0.8422332386   -4.6508873616   -4.8157280412
C       -0.8958445159   -3.4759254811   -3.9580940038
C       -0.0297229992   -5.6278039053   -4.3052026982
C       -0.1907411755   -1.2908839048   -1.7053933060
C        0.0450753445   -2.6406706168   -1.7512960624
C       -0.1159560001   -3.5971241929   -2.8306256015
C        0.2407862456   -0.8700548337   -0.3835184975
C       -2.1895976859   -0.1630337509   -2.7660450137
C        0.2087420230    0.5107774000    0.2034457649
C       -0.6734351660   -0.3495643895   -2.7912094092
N        0.6793049082   -1.9004867044    0.2885086509
N        0.5616383153   -2.9819931210   -0.5301132305
O       -2.8462944974   -0.6203093330   -3.6872151311
O       -2.7267393208    0.5572718813   -1.7513390376
S        0.6943266646   -5.1524908094   -2.7749291295
H       -1.3890693958   -4.7402917613   -5.7483530591
H       -1.5110922219   -2.6194267530   -4.1929936468
H        0.1502967230   -6.5849596673   -4.7810330398
H       -0.4998015526    1.1488728593   -0.3285638949
H       -0.0811872895    0.4597886927    1.2566490269
H        1.2046146922    0.9571846712    0.1405104283
H       -0.3538874046   -0.7068136052   -3.7732450779
H       -0.2078543945    0.6300534577   -2.6567327974
H        0.8274511747   -3.9325222385   -0.2810393338
H       -3.6868600756    0.5679836489   -1.8968464128
25   

C       -0.7379676582   -4.6495717486   -4.9994701589
C       -0.6672549144   -3.4507610541   -4.1768334822
C       -0.2095912945   -5.7429932434   -4.3684321539
C       -0.0999802402   -1.3715078504   -1.7886447052
C        0.1230669007   -2.7236446444   -1.8674474981
C       -0.0799948880   -3.6698881101   -2.9498637425
C        0.3598184061   -0.9790599627   -0.4680919574
C       -2.1454085958   -0.3540992886   -2.8607590240
C        0.3126397476    0.3860267001    0.1536626009
C       -0.6198774100   -0.3949403399   -2.8247203925
N        0.8179736448   -2.0215477505    0.1697587418
N        0.6795215568   -3.0844241560   -0.6690756187
O       -2.7125333627   -0.7371744551   -3.8711331965
O       -2.7934237550    0.1606756925   -1.7870455000
S        0.3894535653   -5.3516370482   -2.7632071763
H       -1.1673782020   -4.6708506169   -5.9954368930
H       -1.0634963599   -2.5061913317   -4.5186814896
H       -0.1644872812   -6.7366563689   -4.7991948942
H       -0.4966454139    0.9813937311   -0.2757786001
H        0.1530405447    0.2990107990    1.2321643848
H        1.2629850124    0.8988046025   -0.0167843808
H       -0.2192128532   -0.6357696678   -3.8116258668
H       -0.2608184585    0.6111191024   -2.5951588688
H        0.9538893207   -4.0390887311   -0.4465645016
H       -3.7431053538    0.0986858178   -1.9798291564
25   

C       -0.7955675118   -4.5213381468   -4.9197204868
C       -0.5091708902   -3.3103864059   -4.1644477816
C       -0.6848605729   -5.6495123573   -4.1515997189
C       -0.0479698704   -1.2428991751   -1.7475816044
C        0.1362986170   -2.5998858606   -1.8109688338
C       -0.1963372879   -3.5602435353   -2.8467708235
C        0.4673728877   -0.8443748440   -0.4501372644
C       -2.1500954527   -0.5678183296   -2.9891132264
C        0.4613551265    0.5284436017    0.1554459123
C       -0.6628522950   -0.3019476446   -2.7653339417
N        0.9190540401   -1.8905521933    0.1879872819
N        0.7181172877   -2.9630919081   -0.6264854747
O       -2.5488248460   -0.6499935942   -4.1398627246
O       -2.9564075155   -0.6853573192   -1.9052220010
S       -0.2327103272   -5.2787351269   -2.4934267885
H       -1.0671808806   -4.5250447025   -5.9699775927
H       -0.5408930413   -2.3301566497   -4.6195563737
H       -0.8561648313   -6.6564612411   -4.5144821369
H       -0.4351692045    1.0765660657   -0.1447740451
H        0.4804449109    0.4564778723    1.2468575321
H        1.3458113357    1.0795327146   -0.1748859812
H       -0.1210019209   -0.3749203175   -3.7109920055
H       -0.5571252384    0.7323102294   -2.4316771390
H        0.9632127660   -3.9235456228   -0.3951236789
H       -3.8465768381   -0.8808096758   -2.2392046750
25   

C       -0.7846914946   -4.4262071039   -4.9211178534
C       -0.3473617094   -3.2566310247   -4.1727969244
C       -0.9794374855   -5.5156816414   -4.1120385812
C       -0.0201801688   -1.2073627030   -1.7206964533
C        0.1613939949   -2.5610809937   -1.7944851607
C       -0.2312951121   -3.5034631077   -2.8252391934
C        0.5416692634   -0.8180559895   -0.4401670382
C       -2.1427961122   -0.7532462064   -3.0496925036
C        0.6210860731    0.5615536914    0.1438158929
C       -0.7268448037   -0.2931125319   -2.7039907229
N        1.0270487080   -1.8679098857    0.1693384182
N        0.8019533340   -2.9364345373   -0.6457055590
O       -2.4839676390   -0.7058199204   -4.2208123505
O       -2.9498209394   -1.1888537105   -2.0505850902
S       -0.6409137237   -5.1594570859   -2.4221238179
H       -0.9409420585   -4.4300968752   -5.9946031313
H       -0.1373757950   -2.3013922278   -4.6382007133
H       -1.3067919230   -6.4873935667   -4.4635749016
H       -0.2791772861    0.7607539303    0.7315402746
H        1.4910052907    0.6393280012    0.8023507357
H        0.7056069495    1.3124684869   -0.6451446106
H       -0.1329034052   -0.2155722900   -3.6181558549
H       -0.8062754960    0.7126350678   -2.2864199353
H        1.0612647225   -3.8979178426   -0.4350920245
H       -3.7786658885   -1.4745813342   -2.4666962473
25   

C       -0.7131897785   -4.4174355982   -4.9412008210
C       -0.1882717293   -3.2798390277   -4.1995794616
C       -1.1321747455   -5.4272835222   -4.1123042011
C       -0.0519760671   -1.1804795220   -1.7495017183
C        0.1718113997   -2.5252711840   -1.8187964623
C       -0.2252845715   -3.4783871825   -2.8413467857
C        0.5495128392   -0.7630833626   -0.4966528045
C       -2.1869770167   -0.8869872441   -3.1139537311
C        0.6012320225    0.6229473806    0.0744254536
C       -0.8247768374   -0.3123968577   -2.7248562997
N        1.1047825454   -1.7904248427    0.0935592314
N        0.8860729557   -2.8729405894   -0.7059712785
O       -2.5059852578   -0.8394160510   -4.2913358433
O       -2.9734631820   -1.4185782659   -2.1453544577
S       -0.9040541626   -5.0346939348   -2.4109173784
H       -0.7717272962   -4.4555339950   -6.0237318586
H        0.1794620901   -2.3738349250   -4.6673739657
H       -1.5595163327   -6.3621107236   -4.4564213042
H       -0.2561636462    0.7770404608    0.7352068993
H        1.5173155353    0.7523814081    0.6578893225
H        0.5777403918    1.3714272446   -0.7209937069
H       -0.2245044359   -0.1662397719   -3.6267096252
H       -0.9998559323    0.6722966460   -2.2862526025
H        1.1946084863   -3.8223029571   -0.5069568478
H       -3.7605389672   -1.7710797511   -2.5902628546
25   

C       -0.6553782218   -4.4244846230   -4.9194952110
C       -0.0500986267   -3.3393005129   -4.1603902774
C       -1.2934524795   -5.3304382025   -4.1094876741
C       -0.0851654388   -1.1885578812   -1.7047054842
C        0.1652545316   -2.5261101571   -1.7853742145
C       -0.2430742693   -3.4791156316   -2.8092347801
C        0.5648900048   -0.7592373558   -0.4808649329
C       -2.2339841583   -0.9823967533   -3.0677947293
C        0.6093486459    0.6273008669    0.0891739094
C       -0.9081783973   -0.3418116917   -2.6571582473
N        1.1787203377   -1.7729836578    0.0753113596
N        0.9510404605   -2.8592106317   -0.7174584571
O       -2.5338990913   -0.9569700555   -4.2508777973
O       -3.0145795949   -1.5395439970   -2.1089842346
S       -1.1802111809   -4.9024618420   -2.4046294485
H       -0.6142867818   -4.4996446272   -6.0008592986
H        0.4752409738   -2.5034980319   -4.6086140192
H       -1.8143754518   -6.2101547211   -4.4695381418
H       -0.2069492024    0.7534149628    0.8055228171
H        1.5573429890    0.7858807162    0.6112299533
H        0.5089745659    1.3747534710   -0.7012447205
H       -0.3163996590   -0.1401645944   -3.5541429170
H       -1.1386296886    0.6192348255   -2.1921334778
H        1.2981775298   -3.7998132999   -0.5416483380
H       -3.7746137854   -1.9324518334   -2.5668448258
25   

C        0.3447733621   -4.9054894368   -4.5164016395
C        0.7839158889   -3.9109128321   -3.5472811591
C       -0.9431416576   -5.3199935670   -4.2835836062
C       -0.0651984982   -1.2857775786   -1.6174284040
C       -0.0743647676   -2.6433029655   -1.5445381946
C       -0.1865183346   -3.6273783162   -2.6204938810
C        0.0865233457   -0.8327896152   -0.2483335094
C       -1.6643990741   -0.0317090310   -3.0600370828
C        0.1711981561    0.5830710757    0.2386329970
C       -0.2078729077   -0.4374978649   -2.8597993401
N        0.1604221623   -1.8664578265    0.5519807943
N        0.0607877156   -2.9818403793   -0.2278357444
O       -2.3550353398   -0.6922182153   -3.8185124707
O       -2.1049507802    1.0804302824   -2.4207797065
S       -1.6624047406   -4.5246226429   -2.8858655048
H        0.9612375908   -5.2699503537   -5.3310586689
H        1.7591735042   -3.4374118397   -3.5569891201
H       -1.4699912782   -6.0492910034   -4.8880690552
H       -0.8070648901    0.8989607908    0.6106837892
H        0.8927420754    0.6529625820    1.0574351252
H        0.4754904338    1.2555024439   -0.5664622928
H        0.1381777256   -0.9887007915   -3.7383630843
H        0.4052900891    0.4628720611   -2.7745356889
H        0.0760537627   -3.9415366690    0.1113843131
H       -3.0442437235    1.1738071567   -2.6494821769
25   

C        0.4226286214   -5.0569382310   -4.4138530569
C        0.8776301145   -4.0990863262   -3.4153908860
C       -0.9374603879   -5.2395937844   -4.3719159492
C       -0.0961126508   -1.2652180231   -1.6427976158
C       -0.0346463348   -2.6213253610   -1.5858038933
C       -0.1577080707   -3.6046496031   -2.6641894282
C        0.0887818941   -0.8197982111   -0.2754141312
C       -1.7898165255   -0.0315028295   -2.9977241391
C        0.1312568909    0.5939664039    0.2226950684
C       -0.3189923687   -0.4150540551   -2.8717292303
N        0.2410034446   -1.8572824164    0.5092853251
N        0.1620425807   -2.9684091474   -0.2791674586
O       -2.5100272894   -0.7078275679   -3.7135564158
O       -2.2119388360    1.0801789688   -2.3454335899
S       -1.7084757157   -4.2621263553   -3.1254285048
H        1.0810877815   -5.5627550921   -5.1118192562
H        1.9115671835   -3.8017261550   -3.2808206419
H       -1.4869136809   -5.9035607725   -5.0292739773
H       -0.8451728730    0.8649677758    0.6329179290
H        0.8787768013    0.6875625309    1.0154105749
H        0.3772973138    1.2851225345   -0.5865420391
H       -0.0083534257   -0.9583514256   -3.7686341316
H        0.2837740751    0.4945712523   -2.8136900824
H        0.2253348656   -3.9300751060    0.0486606288
H       -3.1625638682    1.1600173823   -2.5277069921
25   

C        0.4695757658   -5.1489301454   -4.3321026339
C        0.9379915249   -4.2419763099   -3.2931323901
C       -0.8892584037   -5.0711617557   -4.5110066429
C       -0.0613181761   -1.1993717474   -1.6508967958
C        0.0518342948   -2.5536687109   -1.6459483201
C       -0.0855882678   -3.5146572122   -2.7404103529
C        0.1522351206   -0.7975989447   -0.2740813764
C       -1.8047704077    0.1400994236   -2.8445487788
C        0.1730415156    0.5989345936    0.2715803026
C       -0.3463746100   -0.3079349283   -2.8373821775
N        0.3598179763   -1.8566619044    0.4680338744
N        0.2913629935   -2.9412066502   -0.3573677540
O       -2.6261661186   -0.5546457124   -3.4197511246
O       -2.1072621697    1.3216573501   -2.2518265822
S       -1.6426438955   -3.8998472989   -3.4323913240
H        1.1187285156   -5.8082000801   -4.8983205462
H        1.9743067854   -4.1482943033   -2.9884062544
H       -1.4471141273   -5.6564950202   -5.2328716772
H       -0.7947014882    0.8275161934    0.7257713396
H        0.9464736676    0.6873342519    1.0396821963
H        0.3704170478    1.3236196037   -0.5217111592
H       -0.1280556090   -0.8376227390   -3.7689296981
H        0.2989718256    0.5735620095   -2.8038286571
H        0.3811764822   -3.9118507916   -0.0642899814
H       -3.0669050696    1.4372700605   -2.3478140280
25   

C        0.4826296846   -5.3084153241   -4.2436084990
C        0.9177361066   -4.4135037858   -3.1801207110
C       -0.8154494168   -5.0701244332   -4.6198518777
C       -0.1436386186   -1.2049341590   -1.7325191906
C        0.0481074229   -2.5516228068   -1.7314263656
C       -0.0657976036   -3.5310813951   -2.8070151948
C        0.1038522228   -0.7878724103   -0.3656103221
C       -1.9782993795    0.0967536700   -2.8384633804
C        0.0757559159    0.6098620047    0.1768722710
C       -0.5127601506   -0.3236120338   -2.9041490486
N        0.4021984502   -1.8306970654    0.3681815203
N        0.3619426056   -2.9196159270   -0.4526763577
O       -2.8173330804   -0.6276821355   -3.3475468203
O       -2.2703643366    1.2877081592   -2.2597812788
S       -1.5489598600   -3.7569852149   -3.7037401660
H        1.1108206296   -6.0741203767   -4.6860461617
H        1.9055950391   -4.4382885756   -2.7341151215
H       -1.3407399687   -5.6191273913   -5.3928902821
H       -0.8913090617    0.7983986199    0.6503575473
H        0.8606694810    0.7341068209    0.9282250608
H        0.2258106028    1.3397382866   -0.6220457347
H       -0.3303465353   -0.8491822579   -3.8455029025
H        0.1153325485    0.5709757820   -2.9057367975
H        0.5116669023   -3.8827989332   -0.1599998753
H       -3.2358910669    1.3835324610   -2.3059642905
25   

C        0.4289959697   -5.3835418361   -4.1580137916
C        0.8319369477   -4.5309443720   -3.0482790994
C       -0.7595065518   -4.9813987227   -4.7124255516
C       -0.1695538492   -1.1865964512   -1.7345985018
C        0.0471562907   -2.5318163785   -1.7475490235
C       -0.0642518194   -3.5151654338   -2.8149111295
C        0.1262528424   -0.7696866862   -0.3766756725
C       -2.0532921261    0.1034439056   -2.7759924236
C        0.0955239239    0.6245174896    0.1755290635
C       -0.5823435415   -0.2899309065   -2.8809022049
N        0.4781597160   -1.8076754476    0.3389812411
N        0.4271625913   -2.8934135373   -0.4843544963
O       -2.8904911511   -0.6200535541   -3.2892565638
O       -2.3530493601    1.2734375186   -2.1598053527
S       -1.4246197594   -3.5612485323   -3.9121438484
H        1.0016391500   -6.2365736406   -4.5060282399
H        1.7416942949   -4.6783017894   -2.4777236118
H       -1.2438936374   -5.4721109989   -5.5487784513
H       -0.8577535016    0.7956088857    0.6823542509
H        0.9034263998    0.7563373739    0.9008086604
H        0.2079133278    1.3620689654   -0.6224158566
H       -0.4065281757   -0.7882678090   -3.8376707088
H        0.0281436130    0.6166858599   -2.8774917639
H        0.6075951847   -3.8533741454   -0.1993935572
H       -3.3206605200    1.3547102315   -2.1856783498
25   

C        0.3499866532   -5.5242430075   -4.0281322481
C        0.7156299784   -4.7020681559   -2.8833153529
C       -0.6915301661   -4.9853380616   -4.7381248389
C       -0.1709561183   -1.2278034487   -1.7090057269
C        0.0586208840   -2.5741769656   -1.7235764376
C       -0.0622613307   -3.5717850708   -2.7735952807
C        0.1842476136   -0.7975560293   -0.3684257835
C       -2.1184999484   -0.0141091554   -2.7294782959
C        0.1622643205    0.5973243369    0.1839636275
C       -0.6276454307   -0.3233464036   -2.8341771193
N        0.5869660080   -1.8244131053    0.3348427658
N        0.5128497887   -2.9150700743   -0.4784448804
O       -2.8989671968   -0.6568446337   -3.4118702599
O       -2.4966876718    1.0093057601   -1.9242455531
S       -1.2585428709   -3.4707282767   -4.0443674109
H        0.8447475797   -6.4533074836   -4.2903570123
H        1.5234341225   -4.9541374608   -2.2065938149
H       -1.1244969139   -5.4299255520   -5.6268316282
H       -0.7720491239    0.7595398192    0.7276705334
H        0.9966046799    0.7374130079    0.8770736040
H        0.2362417423    1.3368637990   -0.6162694574
H       -0.4109472948   -0.7762415703   -3.8044643752
H       -0.0727454973    0.6172871838   -2.8000552315
H        0.7255568447   -3.8681220611   -0.1939178313
H       -3.4651588627    1.0568527613   -1.9799319799
25   

C        0.2483370375   -5.5580699799   -3.9438294688
C        0.5597996619   -4.7613142461   -2.7656148191
C       -0.5826574237   -4.8959809616   -4.8088590249
C       -0.1655701511   -1.1641784996   -1.7355226673
C        0.0805820470   -2.5119024531   -1.7486288515
C       -0.0484109165   -3.5247645405   -2.7823181867
C        0.2565600344   -0.7126325709   -0.4206927076
C       -2.1823134955   -0.0900732915   -2.8010809772
C        0.2196121733    0.6811457419    0.1344916011
C       -0.6641901615   -0.2516739991   -2.8384339059
N        0.6918598320   -1.7269031561    0.2787659703
N        0.5803054097   -2.8282187828   -0.5133892106
O       -2.8507639300   -0.6446089514   -3.6575482064
O       -2.7094584630    0.7228140064   -1.8522764535
S       -1.0115589043   -3.2936300283   -4.2235161091
H        0.6313465347   -6.5577760475   -4.1187603958
H        1.2142559278   -5.1135146046   -1.9778609231
H       -0.9409519764   -5.3005997538   -5.7484438379
H       -0.4890077379    1.3051806983   -0.4138242248
H       -0.0727720578    0.6537296265    1.1878841076
H        1.2145426685    1.1284966073    0.0636495293
H       -0.3516749347   -0.6230416319   -3.8168747836
H       -0.2111720339    0.7367049214   -2.7279365938
H        0.8162822600   -3.7734648888   -0.2229345793
H       -3.6720844299    0.7036456714   -1.9782095752
25   

C       -0.0648612306   -5.5860442611   -3.8258174724
C        0.2704506704   -4.7888433389   -2.6543593137
C       -0.6406839943   -4.8328146557   -4.8148301638
C       -0.1093276468   -1.0691088824   -1.8209780775
C        0.1480848970   -2.4163602019   -1.8128005747
C       -0.0644025025   -3.4598964839   -2.8006841530
C        0.3577096263   -0.5803295170   -0.5365142998
C       -2.2259556899   -0.2022175015   -2.9028540353
C        0.2743364743    0.8205817275   -0.0054736998
C       -0.6986638229   -0.1858311413   -2.9045403037
N        0.8473959619   -1.5685533658    0.1632241069
N        0.7210570988   -2.6890629221   -0.5991937953
O       -2.8016594024   -0.3416793118   -3.9696034402
O       -2.8701062035   -0.0368754477   -1.7201174782
S       -0.7934678379   -3.1411661547   -4.3581899463
H        0.1194976155   -6.6519431894   -3.9072174036
H        0.7346319440   -5.2142253130   -1.7734963497
H       -0.9688620862   -5.2219426998   -5.7718525726
H       -0.5742721007    1.3505965132   -0.4449387187
H        0.1537451676    0.8009598876    1.0814274153
H        1.1952844182    1.3587923763   -0.2445714766
H       -0.3208575352   -0.4825924887   -3.8851662093
H       -0.3738945510    0.8463313990   -2.7551828755
H        1.0139780585   -3.6171752825   -0.3065508059
H       -3.8199844393   -0.0928807066   -1.9117347372
