22   

C        1.8248824485   -0.2121642653    0.1148667152
C        0.5379468745   -0.4647972037    0.5829365670
C        2.9238845841   -0.4465846510    0.9438799927
C        0.3549001701   -0.9564658806    1.8761665207
C        2.7602446371   -0.9282505904    2.2537354472
C        1.4486032903   -1.1953796732    2.7263990870
C        3.9531985060   -1.1290921218    3.0993932345
C        5.2694877430   -0.8026800157    2.8750549637
C        1.1965880900   -1.7555964484    4.1062534452
C        6.3746217888   -1.6108833429    2.2243155503
H        1.9733976464    0.1683570586   -0.8891554602
H       -0.3191153929   -0.2827031871   -0.0554247825
H        3.9191013292   -0.2409344513    0.5679811027
H       -0.6528905785   -1.1552587432    2.2218553035
H        3.7263855021   -1.2973015277    4.1443395754
H        5.7071054780   -0.3760317407    3.7714181822
H        1.7808546760   -2.6690622444    4.2547529484
H        1.4749568492   -1.0210711277    4.8678660716
H        0.1401404800   -2.0062605314    4.2406414201
H        7.1789218050   -1.8079253437    2.9396528804
H        5.9808433103   -2.5673974553    1.8673942075
H        6.7859243854   -1.0617575177    1.3724167490
22   

C        1.9195366852   -0.2860643114    0.1157449255
C        0.6179736266   -0.5043750649    0.5594837178
C        2.9930240309   -0.4848879943    0.9864199474
C        0.3947324710   -0.9256851135    1.8709106589
C        2.7888643338   -0.8920198415    2.3165916628
C        1.4619658037   -1.1244685620    2.7639505353
C        3.9509288606   -1.0579426601    3.2115149556
C        5.2683485942   -0.7942056483    2.9670551580
C        1.1680484934   -1.6253022997    4.1582524949
C        6.2419611261   -1.5944965357    2.1295795955
H        2.0992185515    0.0409048069   -0.9019504044
H       -0.2191691186   -0.3514741010   -0.1121082904
H        3.9982505006   -0.3033022803    0.6259929920
H       -0.6236213598   -1.1034837366    2.1964826538
H        3.7000208658   -1.1350327224    4.2618596070
H        5.7846560965   -0.4504913034    3.8570393345
H        1.7621814585   -2.5198127804    4.3702786623
H        1.4043481989   -0.8518835687    4.8949382634
H        0.1123102325   -1.8922723589    4.2639716449
H        7.0958065612   -1.9114249244    2.7360239724
H        5.7496906343   -2.4842262090    1.7249205791
H        6.6064364008   -0.9858370707    1.2969812140
22   

C        1.9927577415   -0.3619902411    0.1189161844
C        0.6818459933   -0.5518844679    0.5465565108
C        3.0474264859   -0.5123053021    1.0216420439
C        0.4303497743   -0.8946701356    1.8752159886
C        2.8154364435   -0.8377613234    2.3709119676
C        1.4779263140   -1.0394616311    2.8012747828
C        3.9496860461   -0.9540397934    3.3096488035
C        5.2718480682   -0.8033437466    3.0405424708
C        1.1545103318   -1.4750279298    4.2108534280
C        6.1010109956   -1.6096942927    2.0681300118
H        2.1944475873   -0.0929046514   -0.9115175244
H       -0.1403983051   -0.4385390379   -0.1507935243
H        4.0566527273   -0.3452694114    0.6677485378
H       -0.5946647552   -1.0564597967    2.1879206525
H        3.6901012948   -0.9442126580    4.3609111402
H        5.8580976157   -0.5220507802    3.9087333778
H        1.7631380847   -2.3424019961    4.4858522972
H        1.3495368659   -0.6595880211    4.9132034034
H        0.1034585110   -1.7660363951    4.2986720471
H        6.9727845099   -2.0336920188    2.5754746503
H        5.5075469452   -2.4288545348    1.6500886106
H        6.4464566739   -0.9707041863    1.2502304515
22   

C        2.0315765884   -0.4120865309    0.1272144018
C        0.7161738954   -0.5864571606    0.5452130115
C        3.0750979772   -0.5219718683    1.0483311340
C        0.4489122950   -0.8701691197    1.8840619760
C        2.8291929341   -0.7905430184    2.4091641409
C        1.4847424244   -0.9707798453    2.8290869402
C        3.9408906428   -0.8659347598    3.3788418925
C        5.2662531168   -0.8478981216    3.1106868506
C        1.1427153513   -1.3566915212    4.2488123938
C        5.9805488523   -1.6240643588    2.0322286914
H        2.2457114968   -0.1835844904   -0.9104862248
H       -0.0970782515   -0.5059574125   -0.1670881679
H        4.0826760865   -0.3536852036    0.6938681162
H       -0.5795574234   -1.0227577637    2.1898797152
H        3.6779579379   -0.7956303956    4.4271098102
H        5.8950187388   -0.6396156463    3.9695858739
H        1.7610743146   -2.2016107277    4.5686927482
H        1.3092494825   -0.5113003983    4.9222523073
H        0.0960970643   -1.6656829778    4.3281005238
H        6.8488614985   -2.1387269738    2.4544539599
H        5.3151936849   -2.3739321531    1.5928314453
H        6.3262358361   -0.9467490420    1.2458321660
22   

C        2.0514318549   -0.4427899693    0.1339129238
C        0.7360746503   -0.6096511355    0.5525213771
C        3.0926155034   -0.5191994274    1.0608094421
C        0.4664264320   -0.8487210780    1.8989461253
C        2.8468140678   -0.7478440385    2.4304152912
C        1.4996292945   -0.9132244481    2.8501321634
C        3.9458931223   -0.7887228665    3.4177773021
C        5.2640742623   -0.9128678013    3.1642209043
C        1.1524236843   -1.2620681380    4.2783214217
C        5.8994606687   -1.6321136966    2.0022226780
H        2.2676380736   -0.2429412432   -0.9092680580
H       -0.0750623700   -0.5562963940   -0.1647257965
H        4.0944198392   -0.3417610891    0.6978208466
H       -0.5622983023   -0.9966367125    2.2060952035
H        3.6851880564   -0.6743517551    4.4628073035
H        5.9149909871   -0.7797542623    4.0215133857
H        1.7807360277   -2.0877692492    4.6278342471
H        1.2999131571   -0.3948340662    4.9278043482
H        0.1105496476   -1.5866007479    4.3583458917
H        6.7629871959   -2.2065783179    2.3506488938
H        5.1927868945   -2.3294672165    1.5416123212
H        6.2455598617   -0.9134033322    1.2536427180
22   

C        2.0589583732   -0.4695061042    0.1371605751
C        0.7442405420   -0.6217952755    0.5611645190
C        3.1013178055   -0.5247670146    1.0640641174
C        0.4763825806   -0.8223278057    1.9136991479
C        2.8595696995   -0.7188581567    2.4407434345
C        1.5106918799   -0.8639018341    2.8651050358
C        3.9528406501   -0.7386497734    3.4356488000
C        5.2544893322   -0.9988925713    3.2117394484
C        1.1619819840   -1.1791257332    4.3009041125
C        5.8636128270   -1.6272916029    1.9867068803
H        2.2740596992   -0.2952237948   -0.9108312978
H       -0.0676181414   -0.5858078187   -0.1563479173
H        4.0981892960   -0.3479677761    0.6898026091
H       -0.5523076239   -0.9596408548    2.2257597421
H        3.6935163347   -0.5970894454    4.4776946894
H        5.9035378039   -0.9427687295    4.0788852901
H        1.7912327843   -1.9950979026    4.6711099150
H        1.3058392447   -0.2963966572    4.9298645339
H        0.1210689064   -1.5053030628    4.3867229522
H        6.7333866916   -2.2248261486    2.2757068668
H        5.1512951538   -2.2945892290    1.4919179619
H        6.2004015505   -0.8553045910    1.2886245540
22   

C        2.0533016100   -0.4959582052    0.1369293644
C        0.7393767575   -0.6229821733    0.5700851098
C        3.0995647588   -0.5402107937    1.0599477424
C        0.4762469084   -0.7858145824    1.9281917937
C        2.8641086041   -0.6975869135    2.4429809536
C        1.5145006938   -0.8147379927    2.8758472534
C        3.9580651193   -0.7077045078    3.4381311429
C        5.2327158947   -1.0947516037    3.2469790540
C        1.1671117138   -1.0964295980    4.3190838466
C        5.8574555298   -1.6106930191    1.9790487789
H        2.2651142994   -0.3489310990   -0.9159004019
H       -0.0753761202   -0.5964795742   -0.1445535818
H        4.0930346679   -0.3780396968    0.6721679623
H       -0.5523301978   -0.9051062667    2.2478655399
H        3.6995698153   -0.5504380604    4.4780611077
H        5.8641611626   -1.1146826858    4.1286068104
H        1.7897057306   -1.9105215801    4.7045123780
H        1.3203236461   -0.2022260842    4.9292271060
H        0.1238468147   -1.4122987744    4.4144135969
H        6.7474836484   -2.1980070739    2.2239322397
H        5.1674925081   -2.2669843361    1.4401099493
H        6.1692328484   -0.7794759345    1.3398326918
22   

C        2.0640220908   -0.4110236916    0.1476668377
C        0.7498654981   -0.4545113786    0.5977281629
C        3.0964905450   -0.8751028111    0.9645853609
C        0.4724323711   -0.9690889947    1.8624623987
C        2.8446591691   -1.4084809087    2.2465575105
C        1.4961277014   -1.4572349914    2.6934006375
C        3.9260596001   -1.9396228117    3.1032682177
C        5.2378426250   -1.6446831955    3.0370857067
C        1.1405646128   -1.9135910219    4.0890354438
C        5.8809450618   -0.4963587654    2.3060412440
H        2.2859356560   -0.0287726363   -0.8420646603
H       -0.0541170319   -0.0892768555   -0.0311195530
H        4.0916106007   -0.8675773170    0.5465384048
H       -0.5550040043   -0.9774217344    2.2070561782
H        3.6500206042   -2.5881460956    3.9256854240
H        5.8745129741   -2.1602713629    3.7478423261
H        1.2486544393   -2.9983298580    4.1736174293
H        1.7910885541   -1.4256903956    4.8222419397
H        0.1096492412   -1.6432719491    4.3368206672
H        6.2014072128   -0.8101167762    1.3082591791
H        5.1959663213    0.3535933561    2.2293298285
H        6.7656900977   -0.1617518585    2.8558955120
22   

C        2.0566636032   -0.4295336331    0.1344513024
C        0.7415574187   -0.4568925473    0.5849939542
C        3.0866631694   -0.8776386142    0.9635117991
C        0.4608290382   -0.9365627343    1.8632092255
C        2.8291081864   -1.3790193285    2.2561006250
C        1.4821348568   -1.4070843693    2.7069926463
C        3.9150337739   -1.8907034038    3.1183492119
C        5.2400121978   -1.6998802725    2.9590494615
C        1.1262335893   -1.8322668794    4.1121689640
C        5.9150569331   -0.5078940355    2.3307756808
H        2.2809874994   -0.0706474901   -0.8634419060
H       -0.0607395427   -0.1050255640   -0.0535536912
H        4.0872955032   -0.8771252964    0.5565860218
H       -0.5668629557   -0.9326293221    2.2071977404
H        3.6361149861   -2.5178465143    3.9562208483
H        5.8739870217   -2.2782169684    3.6223485616
H        1.2370167083   -2.9146437112    4.2210967832
H        1.7754922552   -1.3268829758    4.8345031582
H        0.0941659366   -1.5597412357    4.3525712597
H        6.2481233312   -0.7501387261    1.3173225853
H        5.2381325520    0.3515157509    2.2985175303
H        6.7918221967   -0.2258303102    2.9213792748
22   

C        2.0352317906   -0.4546976818    0.1101592991
C        0.7212584996   -0.4759645418    0.5666960032
C        3.0708566397   -0.8685450907    0.9502080523
C        0.4475117220   -0.9115597398    1.8627470733
C        2.8177360668   -1.3290617652    2.2572417952
C        1.4748757872   -1.3453327494    2.7186140172
C        3.9198344465   -1.7996901563    3.1208236859
C        5.2469771090   -1.7224261708    2.8729396210
C        1.1286482229   -1.7325743968    4.1369581617
C        5.9987333743   -0.5274471151    2.3412925180
H        2.2541152855   -0.1246915480   -0.8988385972
H       -0.0857431407   -0.1519172913   -0.0805866311
H        4.0766130767   -0.8644047542    0.5532145798
H       -0.5790885274   -0.9035370921    2.2100030598
H        3.6424203571   -2.3893307189    3.9858686451
H        5.8584526153   -2.3632240311    3.4989680145
H        1.2605968513   -2.8088145022    4.2792349352
H        1.7695534264   -1.1929829811    4.8416971148
H        0.0914222284   -1.4738841032    4.3702255211
H        6.3314418049   -0.7162833517    1.3164404924
H        5.3633148528    0.3637092397    2.3536735636
H        6.8782994326   -0.3323236976    2.9621061185
22   

C        1.9952042598   -0.4814905950    0.0805869162
C        0.6846637429   -0.4949758665    0.5493595225
C        3.0403527121   -0.8578152048    0.9266912536
C        0.4241190212   -0.8818760356    1.8640900334
C        2.7983672414   -1.2711830044    2.2498843775
C        1.4616336960   -1.2749712783    2.7272127702
C        3.9214517437   -1.6985684586    3.1090830210
C        5.2419759419   -1.7308743493    2.7963906330
C        1.1311893750   -1.6211687759    4.1597474767
C        6.1077973731   -0.5631689280    2.3833631955
H        2.2037870756   -0.1844872619   -0.9407645671
H       -0.1301208245   -0.2015501559   -0.1027562881
H        4.0490057208   -0.8525804796    0.5338996021
H       -0.5998075456   -0.8695449200    2.2191071624
H        3.6461384981   -2.2442401711    4.0030071787
H        5.8073871063   -2.4416667099    3.3893906858
H        1.2881713128   -2.6889504385    4.3370899186
H        1.7639916774   -1.0444953431    4.8419606986
H        0.0891931188   -1.3795648186    4.3899242742
H        6.4485035823   -0.6952877008    1.3523215128
H        5.5434016727    0.3721048885    2.4518684320
H        6.9827139889   -0.4915603982    3.0364605912
22   

C        1.9200655450   -0.5440187120    0.0378615310
C        0.6193375711   -0.5406296348    0.5345740735
C        2.9856709302   -0.8611179507    0.8827942504
C        0.3892258153   -0.8493854916    1.8758041748
C        2.7739010709   -1.1922928157    2.2327078900
C        1.4482360230   -1.1778031978    2.7399006517
C        3.9266234170   -1.5531267161    3.0810851179
C        5.2385905003   -1.6996196582    2.7315325726
C        1.1486722025   -1.4590142419    4.1933412608
C        6.2506737079   -0.6176219663    2.4240520013
H        2.1050759836   -0.3046530855   -1.0029911203
H       -0.2117094658   -0.2953495988   -0.1169015961
H        3.9901210298   -0.8656811760    0.4773062089
H       -0.6279276802   -0.8296593542    2.2495204007
H        3.6619231930   -2.0203405036    4.0211715967
H        5.7294430668   -2.4713579074    3.3148595958
H        1.3489491619   -2.5094978191    4.4237734444
H        1.7673968592   -0.8239993512    4.8352366324
H        0.1003752667   -1.2481823711    4.4249787858
H        6.6080675750   -0.7220231237    1.3955086712
H        5.7940182464    0.3703404351    2.5384853581
H        7.1048301182   -0.6900067934    3.1040895699
22   

C        1.8227535833   -0.6027103260   -0.0001907480
C        0.5374360113   -0.5835103530    0.5352591843
C        2.9157762013   -0.8693520043    0.8269886613
C        0.3502302000   -0.8251841082    1.8969625650
C        2.7473863716   -1.1288996072    2.1976765631
C        1.4377710876   -1.0987966935    2.7446367688
C        3.9329503842   -1.4362005917    3.0214303385
C        5.2415866369   -1.6451174488    2.6562640925
C        1.1825052614   -1.3240829818    4.2161791566
C        6.3814341860   -0.6558966561    2.5141390567
H        1.9745316770   -0.4142891160   -1.0567770399
H       -0.3150636334   -0.3791529231   -0.1024723879
H        3.9096263200   -0.8858001109    0.3956657732
H       -0.6559378076   -0.7985078735    2.2989273679
H        3.6956198060   -1.8247929818    4.0034305471
H        5.6518303368   -2.4888399626    3.2010915235
H        1.4254769734   -2.3558623337    4.4872216033
H        1.7932897514   -0.6402183921    4.8137684280
H        0.1326589400   -1.1418270328    4.4643322389
H        6.7883442194   -0.6992412939    1.4997501913
H        6.0234150013    0.3603904603    2.7048095107
H        7.1804288985   -0.8853476283    3.2257499367
