29   
Generated by ForceBalance from scan.xyz: Frame 1 of 24
C       -1.7512124471    2.3048602215   -1.8950320134
C       -0.7591121484    2.7376075299   -1.0126934228
C       -2.0817733749    0.9461420701   -1.9299028991
C       -0.1008408052    1.8245469864   -0.1839497359
C       -1.4274591168    0.0372057734   -1.0968377200
C       -0.4114042189    0.4544963561   -0.2177466569
C        1.0934576654    0.0836201579    1.8349912100
C       -0.4361672418   -1.7978984265    1.0905176426
C        0.7335903597   -1.8739619316    0.1491322864
C        0.2783660465   -0.5209995114    0.6968274810
C        3.1669170981    1.1454258949    2.5784039997
C        2.9565627265    0.5271336359    0.2053037265
N        2.3476591470    0.5548223462    1.5271704678
O        0.6404461799    0.1345090992    2.9794985065
H       -2.2649688642    3.0135230689   -2.5391806649
H       -0.4986479957    3.7918677161   -0.9603094666
H       -2.8588739746    0.5920044971   -2.6027508673
H        0.6511073714    2.1922489693    0.5067931145
H       -1.7115242515   -1.0098940183   -1.1486651460
H       -1.4360761240   -1.9612726916    0.7043435354
H       -0.2930362512   -2.1183344361    2.1165235501
H        1.6681287265   -2.2827869100    0.5245383826
H        0.5484331689   -2.0592393513   -0.9058822151
H        4.1127245696    0.5977253662    2.6754699737
H        3.3972324760    2.1920653184    2.3416647570
H        2.6219405927    1.0986143735    3.5195526127
H        3.2348211225    1.5422679194   -0.1042782596
H        3.8667610415   -0.0870202260    0.2172984916
H        2.2727448821    0.1223618517   -0.5352809720
29   
Generated by ForceBalance from scan.xyz: Frame 2 of 24
C       -1.8300591533    2.3088930106   -1.9079183994
C       -0.6812512936    2.6909418709   -1.2110016145
C       -2.3017021143    1.0001811226   -1.7701871680
C       -0.0079062642    1.7735476218   -0.4005364156
C       -1.6307629882    0.0877653760   -0.9524853254
C       -0.4584180181    0.4480242251   -0.2660441125
C        1.0287511031    0.0964053547    1.7904384331
C       -0.3401902876   -1.8642162269    0.9606940830
C        0.8264010733   -1.8199774742    0.0125840725
C        0.2779411809   -0.5260695880    0.6164981372
C        3.0711793478    1.1116776581    2.6686012721
C        3.0184733662    0.4735925072    0.2921119959
N        2.3139874928    0.5325330405    1.5650664521
O        0.4916300715    0.1921657962    2.8943013640
H       -2.3563190016    3.0211189655   -2.5379359824
H       -0.3094557456    3.7095776762   -1.2899412654
H       -3.2036413046    0.6886485795   -2.2911963051
H        0.8653078332    2.1073139546    0.1500503080
H       -2.0331409132   -0.9157751103   -0.8613633585
H       -1.3236025054   -2.1042874115    0.5742979595
H       -0.1662174961   -2.2140677307    1.9723774128
H        1.7889755974   -2.1818203247    0.3646323117
H        0.6421397580   -1.9750233189   -1.0473697619
H        3.9965951476    0.5451961826    2.8320418379
H        3.3380336990    2.1524468524    2.4453661184
H        2.4615518913    1.0805976165    3.5698445364
H        3.4252952245    1.4624411932    0.0471494326
H        3.8570623066   -0.2340138277    0.3439298068
H        2.3556460314    0.1709950648   -0.5137076852
29   
Generated by ForceBalance from scan.xyz: Frame 3 of 24
C       -1.9017244779    2.3000471079   -1.8948284708
C       -0.6245519572    2.6089497313   -1.4179780854
C       -2.4743839837    1.0723798840   -1.5532075532
C        0.0738978323    1.6940841386   -0.6273229713
C       -1.7745853644    0.1624276733   -0.7552561255
C       -0.4787457863    0.4437835699   -0.2942764357
C        0.9981809923    0.1015982480    1.7559407812
C       -0.2523135039   -1.9093366785    0.8428340247
C        0.9208268933   -1.7689356009   -0.0896924587
C        0.2977888427   -0.5309497482    0.5557013621
C        2.9822548678    1.1306996662    2.7425911866
C        3.0847597389    0.4696052538    0.3797683562
N        2.2928307371    0.5423483690    1.5992811266
O        0.4021343608    0.2070436499    2.8283594380
H       -2.4473723078    3.0106157440   -2.5101445112
H       -0.1714644025    3.5682297740   -1.6558987581
H       -3.4758926050    0.8241863035   -1.8957999657
H        1.0506247878    1.9743159257   -0.2486191923
H       -2.2579966609   -0.7703625572   -0.4865294931
H       -1.2106492991   -2.1956460104    0.4265409512
H       -0.0720995566   -2.2944181411    1.8407441313
H        1.8951594339   -2.0979181365    0.2612929338
H        0.7521936089   -1.9000890458   -1.1553316861
H        3.9022947161    0.5727649126    2.9576153230
H        3.2511252776    2.1735030910    2.5318827479
H        2.3239483979    1.0960079016    3.6085548130
H        3.5065658789    1.4568072785    0.1528827120
H        3.9203619936   -0.2334363104    0.5001220129
H        2.4838109227    0.1530149480   -0.4677237014
29   
Generated by ForceBalance from scan.xyz: Frame 4 of 24
C       -1.9445480472    2.2826969763   -1.8708569908
C       -0.5824355482    2.4937247469   -1.6341654851
C       -2.5660273487    1.1617169633   -1.3153629920
C        0.1477310892    1.5864040329   -0.8638560890
C       -1.8319578193    0.2579240978   -0.5408701554
C       -0.4605557132    0.4446147429   -0.3125942415
C        0.9843309220    0.1019727942    1.7466171111
C       -0.1786900975   -1.9315986892    0.7375665798
C        1.0177935461   -1.7226887379   -0.1548633580
C        0.3398649601   -0.5312154586    0.5152985288
C        2.8821359235    1.1829273671    2.8351581612
C        3.1401356883    0.5270202651    0.4880564175
N        2.2765537023    0.5677076315    1.6584402682
O        0.3339997739    0.1922659006    2.7891755639
H       -2.5143423983    2.9876002275   -2.4707353136
H       -0.0868790628    3.3682177911   -2.0486912344
H       -3.6283140705    0.9933323022   -1.4739360395
H        1.1991074989    1.7829056726   -0.6866167197
H       -2.3420688577   -0.5887120108   -0.0938777143
H       -1.1133917630   -2.2222774886    0.2720108583
H       -0.0182692115   -2.3591033511    1.7216493443
H        1.9878219938   -2.0395382610    0.2180585220
H        0.8853332985   -1.8273523389   -1.2284805055
H        3.7974798763    0.6458923532    3.1140398960
H        3.1435591883    2.2279994212    2.6263868278
H        2.1721919915    1.1457138148    3.6590061036
H        3.4931183324    1.5383396798    0.2478120016
H        4.0221475650   -0.0978716513    0.6836130952
H        2.6213794005    0.1285275628   -0.3781388244
29   
Generated by ForceBalance from scan.xyz: Frame 5 of 24
C       -1.9338444793    2.3020803065   -1.8235318344
C       -0.5365731111    2.3611783070   -1.8375331964
C       -2.5695834817    1.3148043081   -1.0655340376
C        0.2141033949    1.4393935769   -1.1036621771
C       -1.8140836437    0.3952549328   -0.3321228043
C       -0.4120615996    0.4410672885   -0.3392855484
C        0.9873100563    0.0267070922    1.7321118298
C       -0.1418805242   -1.9697965636    0.5942720365
C        1.0866896926   -1.7155524579   -0.2456881179
C        0.3840199706   -0.5629564846    0.4579844051
C        2.7887784219    1.1881056074    2.8950314854
C        3.1397402449    0.6184395289    0.5388967855
N        2.2514327018    0.5663206692    1.6888271620
O        0.3199744614    0.0263364672    2.7686913657
H       -2.5189504981    3.0176474744   -2.3955057491
H       -0.0297113941    3.1233739010   -2.4243495840
H       -3.6551770318    1.2618190798   -1.0406201675
H        1.2961110618    1.5004079179   -1.1387227198
H       -2.3177933920   -0.3534561888    0.2714923760
H       -1.0618289731   -2.2217632979    0.0776118823
H       -0.0162680705   -2.4519369780    1.5579890907
H        2.0424270488   -2.0514982221    0.1474294319
H        0.9935549746   -1.7727100828   -1.3270959044
H        3.7230558885    0.6951246212    3.1917662975
H        2.9996247430    2.2494005509    2.7123054449
H        2.0586779369    1.0965482284    3.6966501785
H        3.3487082416    1.6605519226    0.2630496533
H        4.0959855263    0.1366026028    0.7817204525
H        2.7099750129    0.1106317069   -0.3183447021
29   
Generated by ForceBalance from scan.xyz: Frame 6 of 24
C       -1.8515869786    2.3105505729   -1.8125185339
C       -0.4838348815    2.1610769832   -2.0607077646
C       -2.4658101257    1.5072581882   -0.8458191968
C        0.2635356071    1.2227191385   -1.3424466307
C       -1.7165236142    0.5684298946   -0.1327477018
C       -0.3388441936    0.4231088256   -0.3596528038
C        0.9971304489   -0.0842691089    1.7382792871
C       -0.1241919839   -2.0170297120    0.4816749927
C        1.1423583193   -1.7429520735   -0.2974341142
C        0.4249580241   -0.6149241002    0.4238444822
C        2.6903150502    1.1844204400    2.9521481573
C        3.0371379417    0.8036267081    0.5525463930
N        2.2071818732    0.5651997929    1.7220908472
O        0.3527447579   -0.2265418696    2.7807003339
H       -2.4337686594    3.0382077683   -2.3721898083
H        0.0008667020    2.7684620892   -2.8211893807
H       -3.5305679347    1.6084208442   -0.6509312666
H        1.3176022574    1.1023358108   -1.5692872578
H       -2.1928889242   -0.0505827224    0.6224707199
H       -1.0283868388   -2.2219954372   -0.0826724019
H       -0.0449745310   -2.5386313792    1.4295653418
H        2.0786596075   -2.1045388605    0.1196407654
H        1.0926399388   -1.7584725756   -1.3831734261
H        3.6682218957    0.7703606628    3.2273219912
H        2.7983107042    2.2677889490    2.8137067121
H        1.9764780212    0.9905712206    3.7502617883
H        2.9547971062    1.8441701661    0.2111318015
H        4.0856034387    0.6112569671    0.8090602975
H        2.7620127974    0.1427458185   -0.2641426208
29   
Generated by ForceBalance from scan.xyz: Frame 7 of 24
C       -1.7520194950    2.3316443777   -1.7726379877
C       -0.4857207043    1.9218630548   -2.1988779590
C       -2.3178242060    1.7515265401   -0.6309623756
C        0.2154851502    0.9475061931   -1.4805105452
C       -1.6171758818    0.7741564070    0.0779217895
C       -0.3328042943    0.3727473945   -0.3261024317
C        0.9052604798   -0.2446242446    1.8143754795
C       -0.2353298010   -2.0922564771    0.4519794739
C        1.0825906664   -1.8394817796   -0.2442066499
C        0.3585337797   -0.7071417069    0.4650649045
C        2.4332829966    1.1880598495    3.0666789990
C        2.7464265715    0.9810321861    0.6300447139
N        1.9972587967    0.5846641771    1.8121905024
O        0.3518022619   -0.5887408033    2.8629624861
H       -2.2983272086    3.0880992902   -2.3302135202
H       -0.0450997660    2.3543955650   -3.0938501054
H       -3.3084118999    2.0538512923   -0.3003457678
H        1.1895641674    0.6240363059   -1.8359139677
H       -2.0562800771    0.3164375905    0.9609057221
H       -1.1116931101   -2.2458382478   -0.1699169461
H       -0.2299539236   -2.6329586082    1.3922383340
H        1.9832064591   -2.2336380509    0.2189433642
H        1.0964108858   -1.8315508081   -1.3307130938
H        3.4374076732    0.8369146508    3.3362798742
H        2.4615911668    2.2800910865    2.9666656044
H        1.7346485773    0.9112192086    3.8540664345
H        2.4255304848    1.9602752247    0.2524615412
H        3.8093654669    1.0405988628    0.8882388665
H        2.6346687813    0.2456074079   -0.1631133491
29   
Generated by ForceBalance from scan.xyz: Frame 8 of 24
C       -1.6588906190    2.3603299410   -1.7756201277
C       -0.5362058147    1.7505645969   -2.3417049003
C       -2.0991420912    1.9536448168   -0.5100029858
C        0.1455120754    0.7468575150   -1.6448664442
C       -1.4213726976    0.9458774445    0.1778147541
C       -0.2844411149    0.3343054160   -0.3774274253
C        0.9050952231   -0.3320639175    1.7789955202
C       -0.2064317413   -2.1453915154    0.3528182606
C        1.1350566610   -1.8857327860   -0.2887008310
C        0.3896052909   -0.7583005813    0.4073897869
C        2.3142856576    1.1774931902    3.0818075927
C        2.5807201228    1.1292460964    0.6265367360
N        1.9068318720    0.6031750479    1.8050671450
O        0.4187556886   -0.7980145532    2.8138536857
H       -2.1882816870    3.1414990440   -2.3150792538
H       -0.1880186836    2.0562240690   -3.3253124533
H       -2.9755561696    2.4171492684   -0.0638740769
H        1.0208175756    0.2865191348   -2.0954065143
H       -1.7687612635    0.6226794114    1.1563420755
H       -1.0597777454   -2.2828133424   -0.3037170433
H       -0.2387409182   -2.6926373064    1.2886636945
H        2.0184416038   -2.2806083200    0.2054209656
H        1.1924752495   -1.8730649660   -1.3732042924
H        3.3578026564    0.9224711309    3.3058511277
H        2.2226112511    2.2702088595    3.0480736226
H        1.6737922063    0.7813946223    3.8678760809
H        2.1409824656    2.0771113890    0.2916729166
H        3.6344720503    1.3012155349    0.8706618874
H        2.5381423614    0.4166855641   -0.1944458770
29   
Generated by ForceBalance from scan.xyz: Frame 9 of 24
C       -1.6281086257    2.3609973867   -1.7658732271
C       -0.6999271247    1.5668473708   -2.4444148434
C       -1.9020805876    2.0960499777   -0.4188068600
C       -0.0483520667    0.5202305590   -1.7829228708
C       -1.2566873858    1.0455163935    0.2353762786
C       -0.3186684156    0.2427130160   -0.4365671991
C        0.8126815510   -0.5306161921    1.7231014642
C       -0.2766426229   -2.2650236975    0.1888740559
C        1.0904140510   -1.9958575307   -0.3834539999
C        0.3294251499   -0.8823152010    0.3208862070
C        2.1301278335    0.9681711741    3.1318789660
C        2.3817414744    1.1178955302    0.6787051055
N        1.7507732725    0.4646688314    1.8176834708
O        0.3698626760   -1.1105052824    2.7192483424
H       -2.1313248424    3.1766180714   -2.2785957593
H       -0.4754759963    1.7649534434   -3.4896297860
H       -2.6236676148    2.7050700819    0.1201103147
H        0.6848119774   -0.0715825983   -2.3236791367
H       -1.4813971600    0.8380905244    1.2789328598
H       -1.1042682805   -2.3623477776   -0.5063104892
H       -0.3534235438   -2.8415771259    1.1042479284
H        1.9484411601   -2.4102919494    0.1382716111
H        1.2029662999   -1.9512453643   -1.4622193993
H        3.1922160927    0.7752155919    3.3288508641
H        1.9582099104    2.0506299961    3.1839674404
H        1.5304933607    0.4661936708    3.8892401259
H        1.8870894741    2.0638255485    0.4244514006
H        3.4276776957    1.3269430728    0.9278105268
H        2.3669435423    0.4729131392   -0.1974929787
29   
Generated by ForceBalance from scan.xyz: Frame 10 of 24
C       -1.6294864280    2.3511820053   -1.7983582866
C       -0.8892549816    1.4050568848   -2.5126329026
C       -1.7027570375    2.2495532026   -0.4049674686
C       -0.2247354075    0.3737395961   -1.8416208982
C       -1.0435570416    1.2150217669    0.2616461013
C       -0.2912976190    0.2606317959   -0.4450366240
C        0.8067743482   -0.5080243612    1.7384581913
C       -0.1489467411   -2.2564566817    0.1326917307
C        1.2251429385   -1.9110520375   -0.3735188023
C        0.3816727160   -0.8462539157    0.3154999630
C        2.0724146151    0.9727458722    3.2142256701
C        2.3736949729    1.1975973971    0.7776690205
N        1.7313876934    0.4955901146    1.8800561085
O        0.3410858085   -1.1110133240    2.7095465224
H       -2.1420049678    3.1556169625   -2.3193056740
H       -0.8219466042    1.4713732724   -3.5957616045
H       -2.2785794501    2.9750675117    0.1643353776
H        0.3533804900   -0.3399072043   -2.4212114586
H       -1.1199957385    1.1415599711    1.3433337642
H       -0.9427772664   -2.3746425967   -0.5978481723
H       -0.2392060595   -2.8554987937    1.0322559693
H        2.0779161350   -2.2876093264    0.1843587420
H        1.3918365881   -1.8394304653   -1.4436757725
H        3.1383660146    0.8136026100    3.4199266074
H        1.8605382034    2.0464937793    3.2964044293
H        1.4814833471    0.4264116574    3.9473336162
H        1.9299233201    2.1888932409    0.6193374258
H        3.4379483440    1.3250207739    1.0069414699
H        2.2910963753    0.6322419467   -0.1475503541
29   
Generated by ForceBalance from scan.xyz: Frame 11 of 24
C       -1.6801425631    2.3195311722   -1.8653696529
C       -1.1286782472    1.2410249849   -2.5640075066
C       -1.5502081726    2.3681047312   -0.4745455497
C       -0.4499700406    0.2303412282   -1.8790749720
C       -0.8730667058    1.3543940027    0.2078058764
C       -0.3076001812    0.2684960488   -0.4817125484
C        0.7670489249   -0.5150027348    1.7175970656
C       -0.0399065023   -2.2541494912    0.0246834453
C        1.3212401799   -1.8094186733   -0.4335120697
C        0.3980200995   -0.8218350801    0.2727355927
C        2.0381470811    0.8742824423    3.2752832236
C        2.4064897544    1.1808807115    0.8586908294
N        1.7179215622    0.4552399662    1.9165916105
O        0.2420769506   -1.1186046962    2.6566625151
H       -2.2058430501    3.1080432464   -2.3972904568
H       -1.2239806436    1.1861128539   -3.6456757911
H       -1.9806265943    3.1955333975    0.0841653055
H       -0.0322042676   -0.5945984381   -2.4493329721
H       -0.7958814830    1.4047936933    1.2900539007
H       -0.8120297319   -2.3939459629   -0.7251275547
H       -0.1138612847   -2.8925784061    0.8981901829
H        2.1824781076   -2.1561616115    0.1309671588
H        1.5099665002   -1.6725209326   -1.4941770756
H        3.0955695179    0.6830806056    3.4969360164
H        1.8489679176    1.9488407258    3.3945825746
H        1.4182423722    0.3148051430    3.9737369978
H        2.0379002306    2.2117237359    0.7794354609
H        3.4798109173    1.2127800091    1.0809495669
H        2.2702438593    0.6939694913   -0.1036597258
29   
Generated by ForceBalance from scan.xyz: Frame 12 of 24
C       -1.7186056664    2.2905494021   -1.9027417307
C       -1.3233919300    1.1103400151   -2.5416774067
C       -1.4122943063    2.4663048374   -0.5514387620
C       -0.6301342930    0.1242433564   -1.8379909557
C       -0.7161427272    1.4776266681    0.1499704922
C       -0.3153933179    0.2860923006   -0.4764760668
C        0.7400853777   -0.4751591992    1.7424403064
C        0.1138843198   -2.2260826522   -0.0027063064
C        1.4384184413   -1.6706549487   -0.4451274255
C        0.4400458499   -0.7705608557    0.2786471242
C        2.0112333770    0.8202803687    3.3790746034
C        2.4810210063    1.1724078416    0.9880009445
N        1.7231118361    0.4499591078    1.9991778148
O        0.1326360878   -1.0508830579    2.6474818445
H       -2.2587600199    3.0583064928   -2.4503027419
H       -1.5550923282    0.9563967371   -3.5927182017
H       -1.7166612637    3.3744475749   -0.0369367610
H       -0.3365204663   -0.7804063420   -2.3635959474
H       -0.5015548443    1.6328471412    1.2028253589
H       -0.6460354744   -2.4182783151   -0.7530190880
H        0.0875853500   -2.8844970742    0.8584852018
H        2.3240542915   -1.9687626523    0.1098323003
H        1.6127791777   -1.4817973343   -1.5009439159
H        3.0603136453    0.6076518006    3.6198348293
H        1.8330545545    1.8926904052    3.5309362472
H        1.3651660990    0.2469641277    4.0416292745
H        2.2302562712    2.2408699796    1.0028384484
H        3.5552093104    1.0688805794    1.1863126446
H        2.2744562193    0.7880333119   -0.0069939525
29   
Generated by ForceBalance from scan.xyz: Frame 13 of 24
C       -1.7964719187    2.3268846370   -1.3473176468
C       -2.0922772632    1.0486351458   -1.8309134091
C       -0.8488967156    2.4656710262   -0.3292299259
C       -1.4552976953   -0.0743942586   -1.2974349303
C       -0.2116803358    1.3408851352    0.2004244552
C       -0.5044919460    0.0497983762   -0.2704952107
C        0.9591159132   -0.9211057378    1.6051872340
C       -0.3178934888   -2.5600836856    0.0908708036
C        0.8927715216   -2.0912798228   -0.6677023727
C        0.2078305625   -1.1433257501    0.2997995301
C        0.8577794490   -0.3181951620    3.9701931683
C       -1.2577365057   -0.5807938295    2.7335594422
N        0.1967536867   -0.6465021503    2.7134549391
O        2.1891740434   -0.9977316469    1.6595513441
H       -2.2943117183    3.2003700117   -1.7599469368
H       -2.8239440169    0.9230485688   -2.6252388524
H       -0.6003754634    3.4527358619    0.0528704498
H       -1.7069984758   -1.0535045320   -1.6951816570
H        0.5318231125    1.4730106095    0.9811474408
H       -1.2599839839   -2.6889949705   -0.4336542490
H       -0.1627534400   -3.2599355931    0.9073912903
H        1.8687865646   -2.4594173289   -0.3710591505
H        0.7788771580   -1.8623547727   -1.7224977526
H        0.5469076839    0.6771576597    4.3126219169
H        0.5933851623   -1.0483646041    4.7452999084
H        1.9355703954   -0.3314106908    3.8173686287
H       -1.6324177035   -1.1284579561    3.6064552344
H       -1.6078561276    0.4574250703    2.7988061779
H       -1.6828746669   -1.0296129366    1.8392959643
29   
Generated by ForceBalance from scan.xyz: Frame 14 of 24
C       -1.7848837468    2.3282571687   -1.2604072514
C       -2.2487675071    1.0496269505   -1.5815960789
C       -0.6670010597    2.4622821608   -0.4298783171
C       -1.6056643982   -0.0826891874   -1.0719271360
C       -0.0236457345    1.3293623854    0.0717408011
C       -0.4832127387    0.0377303836   -0.2392485736
C        0.9474567944   -0.9370301448    1.6490990294
C       -0.1834229084   -2.5815072259    0.0284309868
C        1.0259434963   -2.0186688854   -0.6681288311
C        0.2547581006   -1.1503909033    0.3089511119
C        0.7439758182   -0.2697246920    3.9907159805
C       -1.3144370963   -0.5650324619    2.6656594978
N        0.1395557332   -0.6316332397    2.7149423022
O        2.1723433679   -1.0366564836    1.7633231655
H       -2.2872334626    3.2088465224   -1.6519938604
H       -3.1171762752    0.9304343928   -2.2248675348
H       -0.2924856584    3.4507370809   -0.1753842335
H       -1.9945575386   -1.0640529823   -1.3270965553
H        0.8515864271    1.4476868918    0.7051920548
H       -1.0900310168   -2.7515962127   -0.5436426195
H       -0.0183680036   -3.3023483358    0.8242730144
H        2.0108458607   -2.3427813046   -0.3502220547
H        0.9288973611   -1.7568049696   -1.7168997690
H        0.4159209086    0.7331781202    4.2926127026
H        0.4486834949   -0.9804907586    4.7726899406
H        1.8274469558   -0.2835184948    3.8856079714
H       -1.7243384313   -1.0354485894    3.5667846710
H       -1.6680028511    0.4731351237    2.6225285454
H       -1.7014337510   -1.0962760991    1.7993417779
29   
Generated by ForceBalance from scan.xyz: Frame 15 of 24
C       -1.7681682148    2.3396555142   -1.2340641113
C       -2.3632221526    1.0814024524   -1.3576083984
C       -0.5122892315    2.4475443856   -0.6248664418
C       -1.7116425649   -0.0577892929   -0.8726945409
C        0.1386599900    1.3077224434   -0.1503549287
C       -0.4526128776    0.0377369719   -0.2655835909
C        0.9486953914   -0.9683837445    1.6230650662
C       -0.0815804293   -2.5784299982   -0.1086282798
C        1.1362851348   -1.9483479244   -0.7324384313
C        0.3056899475   -1.1515957018    0.2527940813
C        0.6643249957   -0.3253779725    3.9623891093
C       -1.3485225087   -0.6453774852    2.5653219822
N        0.1045126850   -0.6812813932    2.6643946854
O        2.1697039282   -1.0670931782    1.7777866365
H       -2.2756608590    3.2257229665   -1.6064539938
H       -3.3398835325    0.9845963996   -1.8254645370
H       -0.0377990496    3.4206126695   -0.5248558994
H       -2.2005758657   -1.0238699056   -0.9608884180
H        1.1187282220    1.3966664025    0.3123975676
H       -0.9571617048   -2.7423445689   -0.7289427674
H        0.0751857645   -3.3355955478    0.6543848027
H        2.1177003868   -2.2590809551   -0.3912417602
H        1.0687556777   -1.6449052541   -1.7722851854
H        0.2927596980    0.6585486954    4.2750038035
H        0.3783509873   -1.0626197646    4.7231508717
H        1.7497767476   -0.2980162671    3.8835754501
H       -1.7740408201   -1.0303950337    3.4981956376
H       -1.7226255965    0.3735619408    2.4046074877
H       -1.6989528898   -1.2756211325    1.7503471528
29   
Generated by ForceBalance from scan.xyz: Frame 16 of 24
C       -1.7581220435    2.3598652019   -1.2673316965
C       -2.4508238066    1.1555025415   -1.1175906872
C       -0.4167557224    2.4351573575   -0.8724013504
C       -1.8118666037    0.0368367942   -0.5715578916
C        0.2199781592    1.3147993074   -0.3362281383
C       -0.4715079943    0.1025367011   -0.1709931069
C        0.8514985096   -0.8484530272    1.7922609980
C       -0.0913346061   -2.4987706613    0.0231819479
C        1.1618023355   -1.8693858946   -0.5354864356
C        0.2790510291   -1.0722124048    0.3956094020
C        0.4393036421   -0.2671239616    4.1273084813
C       -1.4924657649   -0.7656440447    2.6709999627
N       -0.0469935688   -0.6606723091    2.8102954413
O        2.0712239615   -0.8167288502    1.9819141613
H       -2.2551011790    3.2293130990   -1.6899508006
H       -3.4915420570    1.0849274856   -1.4242117904
H        0.1339397206    3.3650831635   -0.9904739950
H       -2.3668424271   -0.8903742862   -0.4558837524
H        1.2644775433    1.3699996018   -0.0385716798
H       -0.9311604659   -2.6551199959   -0.6475537891
H        0.0222979630   -3.2611478158    0.7889122431
H        2.1221569197   -2.1806974746   -0.1389539796
H        1.1558999852   -1.5773861054   -1.5808715191
H       -0.0444664999    0.6656766725    4.4425824169
H        0.2163689975   -1.0433003273    4.8702856208
H        1.5168195858   -0.1207074222    4.0768883433
H       -1.9043960174   -1.1987494683    3.5887746953
H       -1.9604624846    0.2130955562    2.5065073825
H       -1.7554106993   -1.4205382384    1.8430986303
29   
Generated by ForceBalance from scan.xyz: Frame 17 of 24
C       -1.6980333390    2.3886553306   -1.3348944494
C       -2.4466919026    1.2812874487   -0.9269384855
C       -0.3082648804    2.3794906623   -1.1663625447
C       -1.8139785650    0.1784324677   -0.3433868236
C        0.3203670632    1.2740023960   -0.5905992041
C       -0.4256736037    0.1665734947   -0.1535837551
C        0.8393814041   -0.7746275598    1.8489288484
C       -0.0487116901   -2.4268312177    0.0338013396
C        1.2295666360   -1.7959173677   -0.4695076947
C        0.3160913924   -1.0065606900    0.4326852783
C        0.3673089260   -0.3252847738    4.2009243734
C       -1.5016224902   -0.9728002875    2.7292123590
N       -0.0756279236   -0.7219026390    2.8688401714
O        2.0465163646   -0.6098598922    2.0487578578
H       -2.1896908377    3.2452010140   -1.7890201646
H       -3.5246262295    1.2712166177   -1.0686693161
H        0.2853089652    3.2296148040   -1.4933221585
H       -2.4082011128   -0.6826141043   -0.0513377891
H        1.4001922453    1.2612472088   -0.4649296046
H       -0.8660939204   -2.5627824512   -0.6691737970
H        0.0337094322   -3.2028003259    0.7901621909
H        2.1719154595   -2.1219561605   -0.0427036578
H        1.2674274934   -1.4988205086   -1.5128832021
H       -0.2175545339    0.5349762402    4.5491234850
H        0.2337738671   -1.1487055857    4.9139376167
H        1.4213380524   -0.0571813849    4.1580340484
H       -1.8579352716   -1.4962295151    3.6231203676
H       -2.0717236157   -0.0411622182    2.6221332184
H       -1.7002725832   -1.6063528998    1.8680298098
29   
Generated by ForceBalance from scan.xyz: Frame 18 of 24
C       -1.6573819089    2.4580430403   -1.7432129102
C       -2.0870971442    2.3149266867   -0.4194319874
C       -0.6194471930    1.6519276710   -2.2201318663
C       -1.4828341561    1.3729348831    0.4160775662
C       -0.0142664743    0.7130510741   -1.3790474754
C       -0.4481724899    0.5490021506   -0.0553289320
C        1.3501333288    0.2737080718    1.7061899304
C       -0.6344537849   -1.3522294730    1.6901036851
C        0.2932181346   -1.8787064267    0.6181683362
C        0.2255189493   -0.3899347354    0.9123154358
C        3.6421712899    1.0961642576    1.8469857952
C        2.9983792773   -0.1808494148   -0.1470746346
N        2.6014800699    0.3502076611    1.1466800020
O        1.1070675792    0.7516160122    2.8173992192
H       -2.1267895627    3.1894892118   -2.3961286804
H       -2.8895922708    2.9407300046   -0.0369094184
H       -0.2796667689    1.7535075195   -3.2479510517
H       -1.8027572450    1.2738503158    1.4496791850
H        0.7783299784    0.0845706604   -1.7719842584
H       -1.6995679893   -1.3493518243    1.4804878858
H       -0.3706170231   -1.5220372075    2.7286003764
H        1.1749204322   -2.4253738907    0.9421691679
H       -0.1413794200   -2.2284239217   -0.3147592422
H        4.4730387758    0.4324737927    2.1178380204
H        4.0308542782    1.8936249688    1.2015096450
H        3.2193827222    1.5316798391    2.7501898772
H        3.1178120708    0.6229885037   -0.8855552936
H        3.9604345940   -0.6976690682   -0.0467622655
H        2.2682830627   -0.8935747170   -0.5185767010
29   
Generated by ForceBalance from scan.xyz: Frame 19 of 24
C       -1.5166333896    2.4446618473   -1.7673033491
C       -1.7754577127    2.4863228572   -0.3920604182
C       -0.6933722515    1.4401229627   -2.2835742407
C       -1.2148375022    1.5289480898    0.4551734328
C       -0.1271222910    0.4877291109   -1.4296571805
C       -0.3907132553    0.5110070409   -0.0534603340
C        1.3417211767    0.1715300469    1.7724683071
C       -0.6608953096   -1.4255651871    1.6408309510
C        0.3134570328   -1.9331887496    0.6020946748
C        0.2367044440   -0.4507317116    0.9209989234
C        3.5686569945    1.1586018412    1.9135259188
C        2.8987834297    0.0707967440   -0.1933684197
N        2.5541778057    0.4116398667    1.1780213195
O        1.1227489406    0.4713183003    2.9497250346
H       -1.9546389658    3.1870372173   -2.4295932306
H       -2.4139105675    3.2646353039    0.0185280108
H       -0.4891534120    1.3977247512   -3.3506689535
H       -1.4069254088    1.5624685740    1.5246247931
H        0.5014958146   -0.2938457385   -1.8466480797
H       -1.7144668302   -1.4102755172    1.3797081053
H       -0.4434856591   -1.6082293562    2.6877108749
H        1.1827882888   -2.4839963464    0.9512410715
H       -0.0811447209   -2.2677057782   -0.3537216292
H        4.4795734238    0.5577218287    2.0257681600
H        3.8239940517    2.0803663621    1.3754907180
H        3.1782858204    1.4092074423    2.8980710781
H        2.7721462036    0.9264073346   -0.8691406464
H        3.9472924779   -0.2447821669   -0.2274788304
H        2.2873436796   -0.7529374889   -0.5531098024
29   
Generated by ForceBalance from scan.xyz: Frame 20 of 24
C       -1.4547429167    2.3864451858   -1.7998380401
C       -1.5017126090    2.5629895341   -0.4114904535
C       -0.8611654833    1.2363521245   -2.3269009886
C       -0.9631512053    1.5945731817    0.4372336604
C       -0.3141684372    0.2724699458   -1.4729329263
C       -0.3659788926    0.4334574057   -0.0825304661
C        1.3059638295    0.0071040531    1.7948646336
C       -0.7135213855   -1.5475905563    1.5449678651
C        0.3028932523   -2.0375367442    0.5422180750
C        0.2193891111   -0.5591448915    0.8849328967
C        3.4649496692    1.1309167558    1.9889889985
C        2.7779147568    0.2566774838   -0.2160301443
N        2.4685466852    0.4192706943    1.1972547126
O        1.1253591802    0.1079480386    3.0121385037
H       -1.8766096793    3.1378186021   -2.4623913353
H       -1.9614290105    3.4542188592    0.0084303400
H       -0.8172524761    1.0904657568   -3.4034424793
H       -1.0028086557    1.7293962045    1.5155882650
H        0.1534444334   -0.6117342424   -1.8979007296
H       -1.7532470004   -1.5180898170    1.2347028544
H       -0.5418014857   -1.7431596379    2.5978660079
H        1.1593864414   -2.5906032600    0.9177667897
H       -0.0505276932   -2.3609055110   -0.4326314716
H        4.3965703498    0.5541055601    2.0484663607
H        3.6856601565    2.1020613702    1.5288761905
H        3.0750704921    1.2830507406    2.9939035723
H        2.5382583517    1.1579866412   -0.7941061894
H        3.8483719238    0.0499407037   -0.3208644578
H        2.2304989782   -0.5832288374   -0.6382074543
29   
Generated by ForceBalance from scan.xyz: Frame 21 of 24
C       -1.4131861177    2.3595288094   -1.8115846529
C       -1.2292541252    2.6404566918   -0.4524676873
C       -1.0560033164    1.1019993654   -2.3052378898
C       -0.6988812593    1.6701759377    0.3993004274
C       -0.5162949532    0.1357673868   -1.4493403318
C       -0.3342622457    0.4024749761   -0.0860375867
C        1.2808818293   -0.0597168148    1.8422404904
C       -0.7307142351   -1.6019096387    1.4992786224
C        0.3333414248   -2.0796626995    0.5456949584
C        0.2247249827   -0.6000195496    0.8841702521
C        3.3871537815    1.1472462161    2.1178171550
C        2.7170740758    0.4303503853   -0.1491811930
N        2.4182275617    0.4559218002    1.2763041836
O        1.1093465752   -0.0813217412    3.0647708027
H       -1.8282642908    3.1124486555   -2.4765363900
H       -1.5043291353    3.6146399410   -0.0558215112
H       -1.1895445138    0.8730089514   -3.3596937127
H       -0.5672747806    1.8908509806    1.4559627121
H       -0.2258831395   -0.8283061105   -1.8572549987
H       -1.7537311233   -1.5738197964    1.1379177305
H       -0.6070868354   -1.7944935535    2.5593669153
H        1.1819980105   -2.6156972884    0.9610535900
H        0.0324402488   -2.4140350882   -0.4422614240
H        4.3537867968    0.6283629735    2.1012047067
H        3.5368256326    2.1722695635    1.7557770856
H        3.0133028466    1.1718979372    3.1399425493
H        2.4329277443    1.3678417714   -0.6436483358
H        3.7939548484    0.2792061256   -0.2800332346
H        2.1998121733   -0.3911737927   -0.6406266505
29   
Generated by ForceBalance from scan.xyz: Frame 22 of 24
C       -1.4662374931    2.3501942171   -1.8322195925
C       -1.0640052929    2.6836984379   -0.5342807481
C       -1.3291153709    1.0305317572   -2.2712716957
C       -0.5316707413    1.7081592308    0.3106406523
C       -0.7891716457    0.0571239904   -1.4246531505
C       -0.3799204575    0.3794136753   -0.1224750268
C        1.1754920545   -0.1160574221    1.8518566737
C       -0.7872749430   -1.6879218037    1.3765509718
C        0.3311479280   -2.1056056813    0.4607243037
C        0.1674785038   -0.6389444285    0.8366669325
C        3.2702675676    1.0773771511    2.2477847143
C        2.6879458877    0.4523167501   -0.0656406127
N        2.3319114004    0.4212932723    1.3461379154
O        0.9572920253   -0.1762337743    3.0652874540
H       -1.8815903461    3.1081020962   -2.4911861420
H       -1.1703501210    3.7049388842   -0.1767843829
H       -1.6374012332    0.7562965563   -3.2771903193
H       -0.2362656134    1.9779836726    1.3212943147
H       -0.6826449341   -0.9579896816   -1.7956596955
H       -1.7935236091   -1.6691017136    0.9704956000
H       -0.7063269172   -1.9102959123    2.4349472107
H        1.1765385814   -2.6266176337    0.9012428780
H        0.0952770435   -2.4189169206   -0.5513658837
H        4.2382076184    0.5606472938    2.2405495100
H        3.4302102998    2.1167885460    1.9339387998
H        2.8631308543    1.0587093476    3.2572655617
H        2.5148702312    1.4439877752   -0.5029782458
H        3.7506702177    0.2056889938   -0.1709439411
H        2.1129366084   -0.2778598464   -0.6302923952
29   
Generated by ForceBalance from scan.xyz: Frame 23 of 24
C       -1.4989376207    2.3189047695   -1.8430904756
C       -0.8773459009    2.7407139470   -0.6641032759
C       -1.5245650172    0.9548076345   -2.1488663350
C       -0.2844679601    1.8105558429    0.1928886414
C       -0.9278345038    0.0272444397   -1.2911897262
C       -0.2885674572    0.4381994614   -0.1098798257
C        1.2702006508    0.0228579963    1.8913428242
C       -0.5641712051   -1.6764969834    1.3529066026
C        0.5936484384   -1.9899485498    0.4462328763
C        0.3147744402   -0.5456326002    0.8512882253
C        3.3465024043    1.2283132326    2.3498945388
C        2.8453416805    0.5932626790    0.0225872059
N        2.4390809245    0.5673320270    1.4204813519
O        1.0053150497   -0.0152972794    3.0957603603
H       -1.9607474305    3.0410309699   -2.5111799783
H       -0.8588885246    3.7966032522   -0.4055830866
H       -2.0098890875    0.6095318078   -3.0584405016
H        0.1791005430    2.1572851706    1.1120297355
H       -0.9648297230   -1.0257527438   -1.5557814331
H       -1.5655536706   -1.7217019233    0.9368405301
H       -0.4818249985   -1.9182285243    2.4069011102
H        1.4697115296   -2.4553835872    0.8893686806
H        0.4033720317   -2.2864854444   -0.5808944313
H        4.3243104578    0.7306715622    2.3507992781
H        3.4923222332    2.2760306744    2.0569114223
H        2.9208427551    1.1853348102    3.3509258743
H        2.7498197867    1.6013677985   -0.4008237745
H        3.8940894087    0.2825570172   -0.0546306830
H        2.2422251754   -0.0869142901   -0.5736601108
29   
Generated by ForceBalance from scan.xyz: Frame 24 of 24
C       -1.6024000376    2.3103880361   -1.8549094270
C       -0.7897147294    2.7560657211   -0.8098374945
C       -1.7829372062    0.9351127355   -2.0359697294
C       -0.1594140897    1.8401874741    0.0371474475
C       -1.1539645679    0.0223183945   -1.1875556920
C       -0.3182887469    0.4560538828   -0.1426019247
C        1.2073202095    0.0605815641    1.8923325228
C       -0.4866859496   -1.7291384107    1.2388606827
C        0.6880772430   -1.9283359902    0.3221805210
C        0.3223886410   -0.5240583714    0.7992231776
C        3.2840751238    1.2043556171    2.4895518000
C        2.9223162643    0.5867210405    0.1338360125
N        2.4215220008    0.5700474141    1.5005461177
O        0.8480084920    0.0631400661    3.0717016878
H       -2.0934179730    3.0215239923   -2.5138861419
H       -0.6494401093    3.8215700030   -0.6453356802
H       -2.4197273023    0.5704573305   -2.8381994367
H        0.4520145477    2.2127228803    0.8532909168
H       -1.3185807057   -1.0392120751   -1.3519572908
H       -1.4870480190   -1.8215716729    0.8289897225
H       -0.3870560866   -2.0162246750    2.2798193541
H        1.5882227666   -2.3717781721    0.7393306707
H        0.5132690504   -2.1639737033   -0.7241112597
H        4.2453645203    0.6790049954    2.5512161131
H        3.4786382928    2.2480189650    2.2109459304
H        2.7925823684    1.1722866019    3.4603445275
H        2.9641226443    1.6121760217   -0.2552843142
H        3.9357442059    0.1673516759    0.1079105729
H        2.2883876558   -0.0019293317   -0.5237055479
