29   

C        2.3220057087   -3.3713154119    0.4960857225
C        3.1980987975   -2.5967794327    1.2589490829
C        0.9445131670   -3.2466187141    0.6856206516
C        2.6974110174   -1.7147395468    2.2231506994
C        0.4430494197   -2.3633997237    1.6479499357
C       -0.1733534025   -3.4794186605    5.7544467775
C        0.4098257484   -4.7286297107    5.9782415235
C       -1.1143464108   -4.3114959871    3.6965882654
C        1.3108384069   -1.6114618286    2.4591259217
C       -0.9290603196   -3.2543779427    4.5998909558
C        0.2457886007   -5.7761639326    5.0634959958
C       -0.5294564654   -5.5650993639    3.9089479902
C        0.8672672910   -0.6482524085    3.4698439638
C       -0.3002261262   -0.4753195610    4.1185626354
O       -2.5075404224   -1.6521660595    3.0642589930
O       -2.4798290966   -1.2135973672    5.4586738421
S       -1.6897845371   -1.6260970617    4.2885706348
Cl       1.0007437700   -7.3234806491    5.3776840400
Cl      -0.7754743583   -6.8391751019    2.7340686416
H        2.7082428579   -4.0565243018   -0.2504008514
H        4.2678108785   -2.6790984134    1.1025216877
H        0.2596682757   -3.8253175824    0.0757725452
H        3.3994856378   -1.1232240176    2.8001523212
H       -0.6285402038   -2.2556247504    1.7179125265
H       -0.0402297063   -2.6824328389    6.4809621958
H        0.9977689177   -4.8947432471    6.8730813264
H       -1.7230559172   -4.1644226505    2.8087573568
H        1.6254189868    0.0750432251    3.7524034006
H       -0.4374724989    0.4184996683    4.7082057265
29   

C        2.1688333437   -3.5528025755    0.6819309769
C        3.0575576846   -2.9056575063    1.5439574907
C        0.8156315935   -3.2072310174    0.6939565559
C        2.5900918421   -1.9283867277    2.4300300133
C        0.3474808398   -2.2302779005    1.5793948868
C       -0.1068637271   -3.4261883309    5.7115846033
C        0.5518709404   -4.6442522902    5.8954184675
C       -0.9823593208   -4.2416655058    3.6188195533
C        1.2209392305   -1.6029353583    2.4840970223
C       -0.8670835906   -3.2074248891    4.5590219193
C        0.4602315470   -5.6659162481    4.9417846787
C       -0.3208079793   -5.4626065905    3.7899867893
C        0.7885850688   -0.5637590292    3.4267177528
C       -0.3743241938   -0.4020685206    4.0822573255
O       -2.5500290240   -1.6655013724    3.0763055318
O       -2.4862165488   -1.2413409398    5.4753894995
S       -1.7081013908   -1.6124483271    4.2834364849
Cl       1.3133220588   -7.1713987732    5.2033753023
Cl      -0.4757994909   -6.7037430691    2.5653385942
H        2.5293681406   -4.3123781778   -0.0029062389
H        4.1108037827   -3.1622393368    1.5259737790
H        0.1270522865   -3.6895674628    0.0090938429
H        3.2962029753   -1.4382125834    3.0909536304
H       -0.6971973221   -1.9509664718    1.5312092251
H       -0.0263129613   -2.6474943638    6.4651498076
H        1.1447260244   -4.8053467079    6.7878489752
H       -1.5898954278   -4.0980196013    2.7297018819
H        1.5488908671    0.1716656275    3.6695139033
H       -0.5408717876    0.5036682709    4.6453599066
29   

C        1.9549151174   -3.7091539048    0.8288071138
C        2.8092314914   -3.2514097559    1.8358162213
C        0.7022450211   -3.1144002163    0.6569598836
C        2.4073416923   -2.2072085649    2.6767166036
C        0.2978314410   -2.0742028781    1.5007866482
C       -0.0856478575   -3.3881517714    5.6851013810
C        0.6451908957   -4.5678993159    5.8469834345
C       -0.8671314319   -4.1929770105    3.5515173092
C        1.1372304989   -1.6222771799    2.5329554373
C       -0.8332821104   -3.1812850396    4.5220952827
C        0.6382100486   -5.5628834198    4.8611530515
C       -0.1337068527   -5.3750246975    3.7008705338
C        0.7369044206   -0.5324933946    3.4406843584
C       -0.4296955076   -0.3681635046    4.0831935455
O       -2.5434759753   -1.6832929899    3.0238445545
O       -2.5425220519   -1.2830474470    5.4335251614
S       -1.7324344574   -1.6162321527    4.2515431864
Cl       1.5875493576   -7.0148695733    5.0914773251
Cl      -0.1829494355   -6.5838059190    2.4356085996
H        2.2646893044   -4.5200698378    0.1788862616
H        3.7838601597   -3.7080946093    1.9659818925
H        0.0419925439   -3.4571529654   -0.1319862948
H        3.0802972685   -1.8656318332    3.4551399503
H       -0.6704230642   -1.6121858994    1.3394572875
H       -0.0650283244   -2.6267633476    6.4600261486
H        1.2317329545   -4.7180887682    6.7454449826
H       -1.4588051782   -4.0561597646    2.6507197231
H        1.5147255897    0.1854044205    3.6802552453
H       -0.6160015163    0.5356408102    4.6429341556
29   

C        1.8470415119   -3.7480610108    0.8906263993
C        2.6266529239   -3.3936798361    1.9956230511
C        0.6928443513   -3.0187493725    0.5912307765
C        2.2526323354   -2.3112453346    2.8003170364
C        0.3159872549   -1.9403984332    1.3991225282
C       -0.0781122928   -3.3634551808    5.6551665725
C        0.6730532698   -4.5294367774    5.8248938962
C       -0.8015846283   -4.1711233199    3.5019637681
C        1.0907881315   -1.5767877120    2.5123706319
C       -0.8077019320   -3.1650508727    4.4790625592
C        0.7022433357   -5.5202299919    4.8352929210
C       -0.0519674207   -5.3419453578    3.6619465478
C        0.6919943487   -0.4564548508    3.3922654672
C       -0.4509102876   -0.3416796510    4.0807140972
O       -2.5003456464   -1.6861459156    2.9417220205
O       -2.5850129284   -1.3127549358    5.3565299785
S       -1.7321620596   -1.6162468925    4.1967304767
Cl       1.6751371197   -6.9547830345    5.0765521470
Cl      -0.0588457905   -6.5489696376    2.3939212452
H        2.1348774062   -4.5885857184    0.2688350774
H        3.5194962615   -3.9617509646    2.2311862638
H        0.0853133804   -3.2896646190   -0.2651285183
H        2.8615255793   -2.0518905394    3.6590000587
H       -0.5844395664   -1.3837700824    1.1580034112
H       -0.0863138398   -2.6056908230    6.4338275955
H        1.2466133035   -4.6725046274    6.7329060798
H       -1.3746220775   -4.0381148576    2.5885950988
H        1.4530052127    0.2933522542    3.5829811373
H       -0.6456096221    0.5391056890    4.6731934132
29   

C        2.0812643675   -3.2008718189    0.8074136013
C        2.3630965711   -3.9910362271    1.9260918654
C        1.8244518282   -1.8357503279    0.9664061013
C        2.3931614368   -3.4154900668    3.2016116832
C        1.8527146919   -1.2614940927    2.2420048225
C       -0.8249578768   -3.9144594831    4.9266814592
C       -0.9392732768   -5.1886793143    4.3642042415
C       -1.0269841308   -2.9506482925    2.7257598760
C        2.1472752585   -2.0436623913    3.3688127183
C       -0.8487994657   -2.7819920110    4.1067158467
C       -1.0925265860   -5.3570376884    2.9821489618
C       -1.1463483247   -4.2223035529    2.1533359399
C        2.1380856025   -1.4559277123    4.7318931350
C        1.0608777457   -1.0821932333    5.4302754968
O       -0.8100273201   -0.0828867442    3.7617216630
O       -1.5529480756   -0.9114613973    5.9397597685
S       -0.6372766955   -1.1084610552    4.8050389402
Cl      -1.2112235578   -6.9708494389    2.3155809114
Cl      -1.3458952135   -4.3719228124    0.4204428597
H        2.0531290184   -3.6474436577   -0.1803914567
H        2.5505571622   -5.0519629784    1.8050241256
H        1.5965024508   -1.2211935059    0.1026049025
H        2.6000169260   -4.0396997767    4.0635249947
H        1.6361277014   -0.2040215242    2.3590373842
H       -0.7087576035   -3.8048655925    6.0014300694
H       -0.9079688214   -6.0636249069    5.0025876559
H       -1.0585753471   -2.0797588467    2.0768886999
H        3.0902047915   -1.4458306624    5.2525561666
H        1.1602105444   -0.7227888597    6.4429870992
29   

C        2.1000069655   -3.2793192898    0.8611411697
C        2.2728394260   -4.0141884973    2.0381577116
C        1.9395253752   -1.8916875058    0.9241414825
C        2.2877670053   -3.3612636486    3.2760795398
C        1.9575757405   -1.2397569559    2.1622229113
C       -0.7993049281   -3.9544825464    4.9175866615
C       -0.9078708754   -5.2112782144    4.3153911338
C       -1.0269135595   -2.9231090700    2.7495174244
C        2.1401816937   -1.9678322427    3.3463124774
C       -0.8393661583   -2.7967776476    4.1339282342
C       -1.0729236614   -5.3368071567    2.9299860211
C       -1.1430344661   -4.1768086709    2.1381739701
C        2.1264060470   -1.2895134311    4.6700026622
C        1.0602188145   -1.0368348903    5.4342764506
O       -0.9286200977   -0.0925640206    3.8835378215
O       -1.5321066485   -1.0225174066    6.0613927697
S       -0.6601557306   -1.1414304238    4.8820551916
Cl      -1.1860488351   -6.9293314151    2.2131619961
Cl      -1.3591894671   -4.2727321196    0.4034378911
H        2.0810472470   -3.7856094542   -0.0976622821
H        2.3854950067   -5.0914522475    1.9915504326
H        1.7953011463   -1.3200290837    0.0141144759
H        2.4097851548   -3.9405678260    4.1842869726
H        1.8173744415   -0.1643559579    2.2057816174
H       -0.6787098267   -3.8779021528    5.9947865594
H       -0.8651600096   -6.1060368313    4.9250704836
H       -1.0718470175   -2.0322323039    2.1290749900
H        3.0997569872   -1.0568199656    5.0898235702
H        1.1829347497   -0.6684730488    6.4412059034
29   

C        2.7883031085   -4.2957557748    2.0007114523
C        3.1455882024   -4.1035584532    3.3386401711
C        2.0482290533   -3.3161482391    1.3323334531
C        2.7582741725   -2.9364868623    4.0068926939
C        1.6646329964   -2.1491157018    2.0025144846
C       -0.3982658776   -4.1793694750    3.9962224329
C       -0.7766359132   -4.8744858535    2.8471972360
C       -1.7264168614   -2.2989478832    3.2794382159
C        2.0025143710   -1.9545791265    3.3505991127
C       -0.8571982657   -2.8759194572    4.2152498805
C       -1.6182491318   -4.2878156809    1.8958761875
C       -2.1038855917   -2.9853364207    2.1172435020
C        1.6164645780   -0.7049149725    4.0536402430
C        0.6689720958   -0.5680780713    4.9868592657
O       -1.4469009263   -1.3783681070    6.4010582511
O        0.5584984460   -2.7740346285    6.5355539216
S       -0.2950532397   -1.9359500587    5.6754085777
Cl      -2.0407998002   -5.1815084085    0.4518040618
Cl      -3.1576849553   -2.2037155372    0.9588662740
H        3.0871778615   -5.1998051451    1.4818961166
H        3.7239018512   -4.8573228801    3.8612731936
H        1.7697029316   -3.4598548123    0.2943424865
H        3.0369258759   -2.7967743361    5.0469470397
H        1.0902859861   -1.3962574813    1.4741131106
H        0.2717298679   -4.6465084870    4.7137163600
H       -0.4028775099   -5.8779167451    2.6826343213
H       -2.1057624462   -1.2947387323    3.4431843113
H        2.0700012708    0.2075031469    3.6800117253
H        0.4268860543    0.4032832582    5.3900445668
29   

C        2.8474054651   -4.2853830620    2.0180142918
C        3.0672228515   -4.1107180675    3.3872402565
C        2.2083543927   -3.2819086303    1.2844439322
C        2.6400282118   -2.9390194823    4.0219433503
C        1.7875299053   -2.1084722887    1.9203197365
C       -0.4114491483   -4.1920278172    3.9949103434
C       -0.8038594902   -4.8720756142    2.8415561816
C       -1.7303283437   -2.2944914390    3.3077144719
C        1.9831324431   -1.9310626064    3.2986739001
C       -0.8572747745   -2.8869506216    4.2299325236
C       -1.6495690999   -4.2696464286    1.9036925625
C       -2.1239991909   -2.9662902652    2.1427833510
C        1.5350846803   -0.6883072074    3.9660982485
C        0.6707270690   -0.5830064508    4.9832800024
O       -1.4104908269   -1.4096486310    6.4389638548
O        0.5998797671   -2.8000522758    6.5279988194
S       -0.2710333361   -1.9591507072    5.6882337805
Cl      -2.0924189974   -5.1455674897    0.4548384477
Cl      -3.1836097319   -2.1653091180    1.0030747323
H        3.1754700050   -5.1940395822    1.5255497137
H        3.5698046810   -4.8815185765    3.9608782760
H        2.0370542681   -3.4124006089    0.2217837472
H        2.8191560697   -2.8147624585    5.0855706793
H        1.2900835032   -1.3393889415    1.3398842301
H        0.2596284414   -4.6721171665    4.7027071086
H       -0.4392477684   -5.8765327167    2.6632774825
H       -2.0997186467   -1.2887607428    3.4842841829
H        1.8584956516    0.2400428184    3.5063552234
H        0.4396678833    0.3814109382    5.4090890427
29   

C        2.9381555679   -4.2200077187    1.9827390259
C        2.9751816982   -4.1077968277    3.3746933545
C        2.4433459824   -3.1624319773    1.2157296662
C        2.5064765156   -2.9457302140    3.9975422686
C        1.9814630621   -1.9985673326    1.8405215317
C       -0.4718361977   -4.1820178325    4.0738773671
C       -0.8817286009   -4.8997050292    2.9497122733
C       -1.7545491834   -2.2875812513    3.3140767911
C        1.9906428089   -1.8803797955    3.2396474813
C       -0.8906125530   -2.8597864173    4.2571466181
C       -1.7207680065   -4.3193154005    1.9919712950
C       -2.1677403570   -2.9980320888    2.1795914699
C        1.4740279099   -0.6565091255    3.8779540664
C        0.6641752122   -0.5463310133    4.9421104181
O       -1.4353546872   -1.3004042492    6.4079721002
O        0.5506759892   -2.7130206366    6.5624305080
S       -0.2983532006   -1.8894857524    5.6842541978
Cl      -2.1929046359   -5.2460491237    0.5845515180
Cl      -3.2206120682   -2.2239607126    1.0153127183
H        3.2978629059   -5.1213900731    1.4990632994
H        3.3709840907   -4.9189558001    3.9755962697
H        2.4153334306   -3.2438813580    0.1348961226
H        2.5619335552   -2.8719105754    5.0783563212
H        1.5947660523   -1.1900224286    1.2301284472
H        0.1876941301   -4.6487530837    4.8011820422
H       -0.5398290863   -5.9183873609    2.8113301047
H       -2.1050994441   -1.2691952430    3.4523359704
H        1.7213454189    0.2721382810    3.3736796267
H        0.4562764491    0.4248092507    5.3647917431
29   

C        3.0358065992   -4.0341724414    1.7318753840
C        2.7687047992   -4.1483471700    3.0970777071
C        2.8214728321   -2.8153138838    1.0865687967
C        2.2771234725   -3.0503917830    3.8117232414
C        2.3319147674   -1.7182541686    1.8038850601
C       -0.6795807203   -4.3060533260    4.3343948464
C       -1.1066374398   -5.1047700716    3.2727224419
C       -1.5975681761   -2.3706147982    3.2274302750
C        2.0358168978   -1.8186730847    3.1748676121
C       -0.9101463076   -2.9258693421    4.3150792989
C       -1.7733944221   -4.5475774413    2.1756357046
C       -2.0245008044   -3.1630131578    2.1541794338
C        1.4875024921   -0.6491378751    3.8708062028
C        0.6529315345   -0.5596063127    4.9213517992
O       -1.4770988616   -1.2550019799    6.3676410131
O        0.4920007296   -2.6577650104    6.6277612625
S       -0.3296152483   -1.8751239186    5.6885317198
Cl      -2.2816666760   -5.5825635086    0.8590993788
Cl      -2.8567064867   -2.4137884035    0.8090156444
H        3.4147389354   -4.8853923930    1.1772135812
H        2.9498536912   -5.0870847504    3.6082301567
H        3.0321014689   -2.7195954691    0.0272783200
H        2.1182102706   -3.1656702813    4.8757547090
H        2.1657948726   -0.7841830424    1.2787339750
H       -0.1628279978   -4.7589562031    5.1770993727
H       -0.9192176980   -6.1717241576    3.2951888874
H       -1.8019100837   -1.3047102018    3.2040373532
H        1.7648599376    0.3052555071    3.4347003416
H        0.4489585692    0.4115618363    5.3464204555
29   

C        3.3431327383   -3.9362528346    1.7049330996
C        2.8302860812   -4.1448918950    2.9852826760
C        3.2553514243   -2.6701254594    1.1267869836
C        2.2226000431   -3.0939809021    3.6813657899
C        2.6481495604   -1.6207099970    1.8248541574
C       -0.7889884798   -4.3438477468    4.3990076405
C       -1.3004524454   -5.1636908479    3.3917690654
C       -1.7282161179   -2.4208653591    3.2878795878
C        2.1088345871   -1.8098534557    3.1117901053
C       -0.9889236569   -2.9594784599    4.3498824431
C       -2.0230077746   -4.6240621964    2.3213242670
C       -2.2412320790   -3.2348257592    2.2699767781
C        1.4424836690   -0.6768155944    3.7569882841
C        0.6016603581   -0.5815683806    4.8046188615
O       -1.4303439539   -1.2475404531    6.3943533452
O        0.5509000572   -2.6439324535    6.5701903198
S       -0.3236133628   -1.8816674724    5.6627895470
Cl      -2.6428121407   -5.6864431799    1.0762274791
Cl      -3.1422957470   -2.5067603340    0.9577926440
H        3.8127146966   -4.7512934830    1.1654449398
H        2.9102455870   -5.1223350732    3.4473660014
H        3.6554024688   -2.5001667140    0.1334517345
H        1.8803459834   -3.2988762588    4.6836052740
H        2.5860853749   -0.6501947046    1.3451563733
H       -0.2363444388   -4.7846817603    5.2253023730
H       -1.1394953661   -6.2342897710    3.4377644685
H       -1.9113681562   -1.3517090542    3.2432530199
H        1.6711920043    0.2821573894    3.3031762495
H        0.3527389416    0.4012083526    5.1759378216
29   

C        2.8480716338   -2.1961289560    0.3981605321
C        1.4892035364   -2.1444646748    0.7054601926
C        3.7858451204   -1.8886361513    1.3823645383
C        1.0691152271   -1.7926639028    1.9932226473
C        3.3631074196   -1.5369204733    2.6687513894
C       -0.7088840085   -4.1786413350    5.3647504529
C       -0.6499516776   -5.5528834881    5.1236573319
C       -1.4878993451   -3.8356425109    3.1090311756
C        1.9959776804   -1.4836688375    3.0097179211
C       -1.1134192270   -3.3027487704    4.3517657597
C       -0.9991538901   -6.0817159623    3.8753943033
C       -1.4268042143   -5.2115763512    2.8559779665
C        1.6517682300   -1.1550317751    4.3938911743
C        0.5039679391   -1.0449878674    5.0926639046
O       -1.6783368942   -0.7795721564    3.4766254062
O       -2.0412979703   -1.2536950583    5.8383527701
S       -1.1947590202   -1.5058978912    4.6623260588
Cl      -0.9046454058   -7.8095973913    3.6128326089
Cl      -1.8861406827   -5.8177830901    1.2794265685
H        3.1721091172   -2.4700790716   -0.5997484543
H        0.7535186889   -2.3732181465   -0.0575291962
H        4.8443980395   -1.9248277885    1.1505783364
H        0.0082193074   -1.7504989770    2.1582099852
H        4.1205464043   -1.3111384428    3.4110473287
H       -0.4430632841   -3.7917988658    6.3448260925
H       -0.3324783806   -6.2241927552    5.9129356319
H       -1.8400562728   -3.1767612196    2.3201628750
H        2.5178851466   -0.9047259366    4.9977997929
H        0.5606723742   -0.6501709735    6.0958863888
29   

C        2.5737042385   -2.6838900582    0.6592738001
C        1.2555810738   -2.2934618632    0.8950608504
C        3.5375836111   -2.4841016849    1.6474502791
C        0.9003021654   -1.7157603927    2.1189710360
C        3.1794533346   -1.9070694169    2.8708054255
C       -0.3692639591   -4.1254121514    5.3946491776
C       -0.1334514794   -5.4672088848    5.0870669458
C       -1.3050000977   -3.8081781407    3.1954781472
C        1.8521548331   -1.5215584822    3.1399369982
C       -0.9433456347   -3.2774986986    4.4426906406
C       -0.4703187150   -5.9901981628    3.8325016317
C       -1.0668833742   -5.1496538386    2.8753586174
C        1.5406387527   -0.9859316772    4.4666903558
C        0.3870297600   -0.8071182444    5.1389706228
O       -1.9173080482   -0.8440457926    3.7014055510
O       -2.0349698533   -1.4123828525    6.0648052374
S       -1.2495258563   -1.5206133489    4.8259748279
Cl      -0.1492973000   -7.6750371150    3.4845284119
Cl      -1.5155155505   -5.7490854285    1.2931189041
H        2.8478569791   -3.1335370348   -0.2886596632
H        0.5048356247   -2.4302147729    0.1247041208
H        4.5648302934   -2.7811209248    1.4682457010
H       -0.1209768431   -1.3886488745    2.2346791149
H        3.9483405512   -1.7759969431    3.6240415758
H       -0.1072571715   -3.7417763116    6.3769243421
H        0.3155696718   -6.1176021807    5.8282727281
H       -1.7801063758   -3.1720278168    2.4537968437
H        2.4138765537   -0.6576681105    5.0211663203
H        0.4082755033   -0.2335002505    6.0532995901
29   

C        2.3665367769   -2.8756689199    0.7558142635
C        1.1397760904   -2.2297743280    0.9151884489
C        3.3044394967   -2.8398222430    1.7888691690
C        0.8467038009   -1.5625741660    2.1097194451
C        3.0092240092   -2.1707642199    2.9819709183
C       -0.2860192556   -4.0824337194    5.3888581660
C        0.0353274253   -5.4020035384    5.0621142270
C       -1.1457723744   -3.7638831886    3.1594255691
C        1.7694638624   -1.5350269365    3.1722012215
C       -0.8641239654   -3.2440851604    4.4312328605
C       -0.2184438370   -5.9113729027    3.7823852601
C       -0.8206317911   -5.0816408909    2.8196342667
C        1.4908088535   -0.8916382573    4.4613580667
C        0.3362431087   -0.7085524134    5.1266550653
O       -1.9683295639   -0.8636079255    3.7076789498
O       -2.0442455730   -1.4450043884    6.0721066869
S       -1.2625267298   -1.5088142777    4.8276568565
Cl       0.2136098344   -7.5656938668    3.4093499084
Cl      -1.1648262026   -5.6632992591    1.2048907668
H        2.5918447184   -3.3962930815   -0.1683707373
H        0.4140387066   -2.2391176047    0.1095809262
H        4.2613129379   -3.3349498950    1.6673667157
H       -0.0974671253   -1.0391978302    2.1829806994
H        3.7498253953   -2.1654954748    3.7739122290
H       -0.0847066737   -3.7074479463    6.3886253456
H        0.4887906803   -6.0449335386    5.8070043391
H       -1.6189362619   -3.1340785306    2.4112411203
H        2.3722650267   -0.5375213132    4.9862005701
H        0.3328208286   -0.0893194549    6.0108380178
29   

C        2.1200497831   -2.9628665421    0.8077641964
C        1.0734938976   -2.0426704672    0.9002503888
C        2.9596218269   -3.1692271575    1.9048963684
C        0.8578452998   -1.3431125841    2.0927729486
C        2.7462723303   -2.4634529143    3.0944103823
C       -0.2636130483   -4.0372387003    5.3840448045
C        0.1404169290   -5.3345066512    5.0587383651
C       -0.9881458066   -3.7171838945    3.1073749640
C        1.6814244415   -1.5556637811    3.2119421285
C       -0.8137222145   -3.2079308157    4.4022723451
C       -0.0031987104   -5.8305443602    3.7567484283
C       -0.5811368034   -5.0124942181    2.7696984693
C        1.4503236379   -0.8541780291    4.4870516315
C        0.2923686732   -0.6566461929    5.1360410143
O       -1.9499660370   -0.8557553631    3.6337040592
O       -2.1081051434   -1.4401643363    5.9996121183
S       -1.2801017098   -1.4855043012    4.7844352345
Cl       0.5378267241   -7.4527911852    3.3850980001
Cl      -0.7883741826   -5.5785027683    1.1261902032
H        2.2817935001   -3.5120045331   -0.1132254309
H        0.4260216901   -1.8693760458    0.0478565889
H        3.7748173626   -3.8805854589    1.8351795184
H        0.0491124092   -0.6215330471    2.1373784756
H        3.4027159864   -2.6421673625    3.9385895834
H       -0.1419007428   -3.6698639905    6.3993676305
H        0.5759537022   -5.9691193341    5.8212336948
H       -1.4323762092   -3.0922564797    2.3377256637
H        2.3446290291   -0.5216283261    5.0041356129
H        0.2665842737   -0.0297612851    6.0142552809
29   

C        2.0209846569   -2.9779177527    0.8329864463
C        1.1113941028   -1.9175482947    0.8655146287
C        2.7467453431   -3.3050867275    1.9815408900
C        0.9200584754   -1.1942870457    2.0480045003
C        2.5583409239   -2.5763703926    3.1613949919
C       -0.2694111299   -4.0090803996    5.3802667944
C        0.1551616458   -5.3037192951    5.0701556092
C       -0.9163638076   -3.6953501798    3.0791188978
C        1.6295380704   -1.5256280174    3.2132946678
C       -0.7917868057   -3.1844569222    4.3792860079
C        0.0573875397   -5.8026737057    3.7650365806
C       -0.4932201064   -4.9900307919    2.7581179015
C        1.4232965841   -0.7666093958    4.4665115469
C        0.2768085410   -0.6301812098    5.1448541026
O       -1.9034348009   -0.8369344570    3.5614489328
O       -2.1521470540   -1.4168480558    5.9238809423
S       -1.2795987030   -1.4626292731    4.7401603966
Cl       0.6222703446   -7.4213729319    3.4137062686
Cl      -0.6458687019   -5.5622118760    1.1106841596
H        2.1630017205   -3.5448271341   -0.0804663189
H        0.5500133319   -1.6554954926   -0.0244269453
H        3.4532294224   -4.1271341565    1.9587021592
H        0.2105850633   -0.3725337806    2.0587688160
H        3.1244309938   -2.8437928200    4.0464927083
H       -0.1835831036   -3.6396601043    6.3984943409
H        0.5705846353   -5.9342378595    5.8472042300
H       -1.3331654586   -3.0717744362    2.2931552602
H        2.3186966713   -0.3770076875    4.9399815227
H        0.2399718458   -0.0296204981    6.0407816412
29   

C        1.9874174427   -3.0003515339    0.8745151261
C        1.1729493029   -1.8650582254    0.8371464238
C        2.6058760677   -3.3719570152    2.0715386303
C        0.9729124730   -1.1076883991    1.9966991920
C        2.4057448891   -2.6112978837    3.2290356002
C       -0.2600925422   -4.0229841414    5.3990050058
C        0.1633919453   -5.3144602644    5.0735826778
C       -0.9072015844   -3.6820008832    3.1013466332
C        1.5741603006   -1.4811642216    3.2071219398
C       -0.7828980316   -3.1866552246    4.4077812731
C        0.0622168458   -5.7991741008    3.7633051578
C       -0.4887849315   -4.9748271787    2.7661609308
C        1.3733435136   -0.6667190348    4.4319323276
C        0.2687478577   -0.6225120063    5.1838498702
O       -1.9159930112   -0.8425008848    3.6172682548
O       -2.1440978381   -1.4425488017    5.9781367807
S       -1.2798098504   -1.4713236758    4.7877109845
Cl       0.6240695055   -7.4147798423    3.3932057300
Cl      -0.6474373386   -5.5303745842    1.1135209643
H        2.1375072671   -3.5919978062   -0.0218066193
H        0.6924349121   -1.5713470242   -0.0894624650
H        3.2373268662   -4.2526647480    2.1035660073
H        0.3339068074   -0.2306893470    1.9593024065
H        2.8886774714   -2.9101204270    4.1525199762
H       -0.1740887703   -3.6657589559    6.4215719604
H        0.5792668026   -5.9543171097    5.8427790879
H       -1.3212008632   -3.0477872748    2.3223184897
H        2.2515847069   -0.1575649377    4.8155739187
H        0.2458649799   -0.0465846114    6.0961997283
29   

C        2.0008782699   -3.1045979258    0.9056339783
C        1.2681994854   -1.9229038620    0.7620575656
C        2.5022279582   -3.4623486071    2.1601607245
C        1.0360326527   -1.1028048521    1.8720927091
C        2.2661487800   -2.6412728249    3.2684747984
C       -0.2207355194   -4.0657483136    5.3690326775
C        0.1883895622   -5.3473684823    4.9895396481
C       -0.9545803509   -3.6573843611    3.1082353107
C        1.5203713477   -1.4595771127    3.1377556883
C       -0.7797993433   -3.2005961145    4.4230961233
C        0.0354102980   -5.7937289984    3.6705208204
C       -0.5527786483   -4.9405686412    2.7199206690
C        1.2976309745   -0.5725293548    4.3104135501
C        0.2614730286   -0.5972849427    5.1532333188
O       -2.0314675335   -0.8788824957    3.7707720134
O       -2.0448360213   -1.5168685021    6.1299565371
S       -1.2802177072   -1.5036126345    4.8727564394
Cl       0.5799873316   -7.3979502654    3.2316131669
Cl      -0.7778275217   -5.4482043950    1.0595489182
H        2.1776564780   -3.7431527107    0.0471617991
H        0.8778779094   -1.6413492271   -0.2095848473
H        3.0696778499   -4.3789639710    2.2750754503
H        0.4636492794   -0.1884363610    1.7525359261
H        2.6586198671   -2.9279752654    4.2375457416
H       -0.0985190614   -3.7398045745    6.3984291865
H        0.6316855113   -6.0103087450    5.7230888294
H       -1.3981192299   -3.0006727418    2.3648407042
H        2.1082884914    0.1095244250    4.5459245177
H        0.2687853694    0.0038679139    6.0494555907
29   

C        3.0349361498   -3.5152458125    2.1410920689
C        1.9431756573   -3.0684832194    1.3899588958
C        3.3210254439   -2.9209124997    3.3742499058
C        1.1432099450   -2.0243885056    1.8682491589
C        2.5189018117   -1.8790041081    3.8530743281
C        0.1962006696   -4.2880833499    4.3855038586
C        0.1131048479   -5.3007929797    3.4293546124
C       -1.8098595814   -3.2957255490    3.4888044192
C        1.4311536507   -1.4136391991    3.0994111207
C       -0.7574987115   -3.2649358395    4.4139096938
C       -0.9187116523   -5.3152772543    2.4845601298
C       -1.8957822192   -4.3026302056    2.5177148853
C        0.5522199119   -0.3315478905    3.6110391879
C       -0.3455938780   -0.4263983433    4.5971876953
O       -1.8624944842   -1.7344609229    6.3626947345
O        0.5498772894   -2.1141405700    6.5033449717
S       -0.6061242799   -1.8994496518    5.6153832912
Cl      -0.9669139899   -6.5848988038    1.2811156909
Cl      -3.2067054523   -4.2720298000    1.3584986898
H        3.6560493836   -4.3227400393    1.7696803949
H        1.7125279354   -3.5338514058    0.4381966570
H        4.1627800187   -3.2672201632    3.9635581425
H        0.2923886895   -1.6936197362    1.2829769961
H        2.7382975171   -1.4320134997    4.8179325888
H        1.0161156111   -4.2854365788    5.0993803025
H        0.8654172037   -6.0800750905    3.4099716869
H       -2.5686230050   -2.5192156385    3.5088612632
H        0.5569707754    0.5917425191    3.0406828883
H       -0.9805477075    0.4101058380    4.8458348592
29   

C        3.0799947791   -3.5025376862    2.1267462642
C        2.0582945271   -3.0169432749    1.3050049839
C        3.2537510183   -2.9708295761    3.4080229607
C        1.2137728298   -1.9989771614    1.7625588275
C        2.4052086463   -1.9575779781    3.8675263049
C        0.1762328854   -4.3086853156    4.4129490088
C        0.0872422304   -5.3169429309    3.4526816699
C       -1.8240545613   -3.3015059898    3.5205481776
C        1.3783338008   -1.4600618123    3.0493728685
C       -0.7699363162   -3.2786386312    4.4436099351
C       -0.9458494722   -5.3226610523    2.5091315111
C       -1.9178983132   -4.3054949729    2.5475921034
C        0.4625115355   -0.3997601923    3.5265953024
C       -0.3440239897   -0.4472087316    4.5943177991
O       -1.8525504643   -1.7263925623    6.3892530635
O        0.5579060468   -2.1186797421    6.5177928061
S       -0.6024483183   -1.9061353281    5.6350506508
Cl      -1.0024210915   -6.5875340871    1.3010867208
Cl      -3.2314475662   -4.2645098292    1.3916937843
H        3.7366566161   -4.2885582425    1.7707138074
H        1.9184785359   -3.4303075904    0.3124490444
H        4.0460252522   -3.3414627303    4.0489020930
H        0.4208686292   -1.6361609141    1.1179697386
H        2.5486009703   -1.5534890502    4.8650154292
H        0.9965807819   -4.3135234754    5.1262523557
H        0.8355895172   -6.0999254080    3.4290039636
H       -2.5771258696   -2.5195449439    3.5426516401
H        0.3552189832    0.4620827131    2.8758102263
H       -0.9511500919    0.4044032042    4.8607161637
29   

C        3.1689466194   -3.4158308491    2.0462332142
C        2.2470921090   -2.8246831070    1.1776742486
C        3.2050532954   -3.0293509410    3.3887706066
C        1.3589735640   -1.8526162543    1.6520216687
C        2.3131693231   -2.0620431728    3.8646471102
C        0.1131417219   -4.3359748208    4.4587774325
C        0.0098294240   -5.3603557574    3.5171268063
C       -1.8622980681   -3.3077832787    3.5357799823
C        1.3698433411   -1.4732091673    3.0057975980
C       -0.8131282237   -3.2874401953    4.4642720368
C       -1.0200163364   -5.3657354092    2.5698382392
C       -1.9721244210   -4.3293302021    2.5833503750
C        0.4228466449   -0.4465999240    3.4780043970
C       -0.3341251942   -0.4599271462    4.5854622072
O       -1.8963331232   -1.6879743691    6.3685874643
O        0.4997050149   -2.1272791906    6.5482460085
S       -0.6372526665   -1.9021024069    5.6388845428
Cl      -1.0996637505   -6.6563200073    1.3905748843
Cl      -3.2826220474   -4.2881772646    1.4239714626
H        3.8593392255   -4.1664074898    1.6776868645
H        2.2203540787   -3.1191578279    0.1345264619
H        3.9283135110   -3.4733890009    4.0636660136
H        0.6486214915   -1.4046811494    0.9660173543
H        2.3708087166   -1.7594041157    4.9048915035
H        0.9269520397   -4.3457245879    5.1794720616
H        0.7418357390   -6.1590503822    3.5129972192
H       -2.6012763272   -2.5121738716    3.5400052109
H        0.2611990842    0.3873903952    2.8025819028
H       -0.9102381694    0.4109998133    4.8584911762
29   

C        3.2150492791   -3.2063821921    1.8146982797
C        2.4537223114   -2.3918973270    0.9729653243
C        3.0626787020   -3.1068686442    3.1996480964
C        1.5313385569   -1.4898784386    1.5150425883
C        2.1396933981   -2.2064748279    3.7427216239
C       -0.0128552556   -4.4295135991    4.7469967964
C       -0.0996696280   -5.5370011397    3.9023133118
C       -1.7679408943   -3.3538794420    3.4915067340
C        1.3408195966   -1.4058988107    2.9079785998
C       -0.8395070008   -3.3194419848    4.5406056705
C       -1.0113847266   -5.5630456877    2.8408220827
C       -1.8582890318   -4.4581897789    2.6345058194
C        0.3671113208   -0.4334560458    3.4188229611
C       -0.4028945394   -0.4581983779    4.5205270722
O       -1.9937777322   -1.6287038565    6.3119730897
O        0.3923037522   -2.0198713602    6.5865670644
S       -0.7132748709   -1.8592906267    5.6265417142
Cl      -1.0804052183   -6.9666547533    1.7977439120
Cl      -3.0189951945   -4.4383424259    1.3245995883
H        3.9300856208   -3.9052252904    1.3949597647
H        2.5783692757   -2.4589339919   -0.1020018362
H        3.6684372066   -3.7199632478    3.8573714660
H        0.9505182793   -0.8668315470    0.8439728545
H        2.0778736774   -2.1218381096    4.8199869824
H        0.7024155964   -4.4298705173    5.5658658217
H        0.5480175902   -6.3896791734    4.0679399555
H       -2.4306239459   -2.5095437966    3.3285086985
H        0.2042641170    0.4250071465    2.7749845070
H       -0.9893702127    0.4122870024    4.7728653665
29   

C        3.4620707865   -3.0065233853    1.7369229495
C        2.7925324146   -2.0836190213    0.9314268247
C        3.1263359642   -3.1172966966    3.0875082157
C        1.7791146221   -1.2848498101    1.4726140760
C        2.1128951357   -2.3193097791    3.6298265222
C       -0.0948381901   -4.4990426989    4.8131096420
C       -0.2639743671   -5.6467841167    4.0369148014
C       -1.8964633391   -3.4403528403    3.6100247619
C        1.4007154955   -1.4117926201    2.8253416686
C       -0.9041050696   -3.3777303283    4.5976838133
C       -1.2427239481   -5.7030261494    3.0378491934
C       -2.0710551826   -4.5858846823    2.8232693010
C        0.3485800079   -0.5186111927    3.3172241204
C       -0.4185660792   -0.5318434065    4.4236353826
O       -1.9391842220   -1.5880223768    6.3384555202
O        0.4474114258   -2.0146356118    6.5273896745
S       -0.6950290326   -1.8740289275    5.6085685382
Cl      -1.4191407649   -7.1597826213    2.0840021671
Cl      -3.3156211085   -4.6031955112    1.5925686853
H        4.2484248078   -3.6252330782    1.3189251063
H        3.0600570214   -1.9848847947   -0.1146524648
H        3.6620938183   -3.8133862484    3.7230008537
H        1.2775889569   -0.5739743412    0.8253130643
H        1.9268664783   -2.4022730317    4.6894619240
H        0.6660121606   -4.4803577924    5.5896448917
H        0.3683806957   -6.5095539985    4.2098809019
H       -2.5484909773   -2.5881553234    3.4441824918
H        0.1412864769    0.3219394762    2.6626947681
H       -1.0366737874    0.3280665579    4.6336440665
29   

C        2.4745839456   -3.0687440387    0.1960150662
C        3.2869202165   -2.1549219503    0.8681619444
C        1.1476596134   -3.2354088942    0.5942752067
C        2.7752897848   -1.4186723338    1.9424313075
C        0.6346480334   -2.4991536037    1.6680051867
C       -0.3630708104   -3.5505176391    5.8165723981
C        0.0838952195   -4.8344074406    6.1365611998
C       -1.3061744983   -4.4104931406    3.7710087458
C        1.4434006004   -1.5927882359    2.3768946470
C       -1.0500733132   -3.3227616274    4.6195262704
C       -0.1506969705   -5.9149708135    5.2778124327
C       -0.8579169696   -5.7002549634    4.0808559944
C        1.0039482807   -0.7582949509    3.4965637351
C       -0.1472019334   -0.6230432418    4.1848405518
O       -2.3127491100   -1.6416311796    2.8825434066
O       -2.5232243422   -1.1545109123    5.2592966935
S       -1.6402239850   -1.6491596901    4.1922130165
Cl       0.4321688821   -7.5067173960    5.7137109432
Cl      -1.1892029309   -7.0154254573    2.9742228503
H        2.8683869151   -3.6395669617   -0.6376347177
H        4.3153581142   -2.0141953804    0.5550496453
H        0.5068893932   -3.9304663728    0.0631635186
H        3.4317993344   -0.7137034508    2.4401332127
H       -0.4045729095   -2.6437592313    1.9028609930
H       -0.1778333352   -2.7289820260    6.5031782481
H        0.6186138629   -5.0021662851    7.0640680524
H       -1.8675379012   -4.2607792818    2.8527085597
H        1.7612129551   -0.0578196180    3.8333892286
H       -0.2240037151    0.1910018518    4.8898404042
