38

C      3.16441    0.41358    1.59589
C      2.82775   -0.90963    1.91191
C      2.22957    1.21654    0.94355
C      1.57290   -1.40852    1.57211
C      0.95967    0.73740    0.58435
C      0.64085   -0.59248    0.91257
C     -0.83606    5.46119   -2.44948
C      0.34953    5.29469   -1.51189
C     -1.43901    0.98357   -0.11947
C     -0.04982    1.63953   -0.09786
C     -0.74586    4.23998   -1.57844
C     -1.41962   -0.53364   -0.34842
C     -2.81011   -1.11976   -0.10998
C     -0.89866   -0.94986   -1.73143
C      0.45243    2.10271   -1.48626
N     -0.53131    2.94249   -2.17584
O     -0.57897   -1.16372    0.65851
H      4.13892    0.81344    1.86245
H      3.54153   -1.55050    2.42336
H      2.47945    2.25114    0.71684
H      1.28617   -2.42926    1.80914
H     -1.58715    6.20967   -2.21470
H     -0.65274    5.33641   -3.51426
H      1.30713    5.04919   -1.96329
H      0.41181    5.93442   -0.63572
H     -1.92074    1.15512    0.84950
H     -2.05613    1.46075   -0.88555
H     -0.13342    2.54856    0.51069
H     -1.42748    4.21502   -0.73062
H     -2.78029   -2.21095   -0.18381
H     -3.51435   -0.73976   -0.85675
H     -3.17638   -0.85151    0.88520
H     -1.06041   -2.02146   -1.88200
H      0.17267   -0.76186   -1.82604
H     -1.41799   -0.40090   -2.52307
H      0.65424    1.23861   -2.12226
H      1.41190    2.62438   -1.33993
H     -0.27331    3.04447   -3.15307
