29

C      3.20230   -1.91941    4.65447
C      3.83410    0.68592    4.51906
C      2.55225   -1.05314    3.77021
C      4.47284   -0.20228    5.40232
C      1.46710   -1.57993    2.86597
C     -1.27158    0.14568    1.08340
C      0.15508   -0.50393   -0.33407
C     -0.15281   -0.92667    1.12928
C     -1.39310    1.27683   -1.17677
C     -1.91788    2.66859   -0.86087
N      2.87460    0.25012    3.70762
N      4.16922   -1.48661    5.47605
N     -0.59777    0.75064   -0.09405
N      0.90089   -0.63407    2.07208
O      1.15011   -2.77106    2.88264
F     -2.70363    3.11819   -1.87269
F     -2.67463    2.67503    0.26793
F     -0.92794    3.56891   -0.68549
Cl     5.72670    0.40703    6.45649
H      2.93251   -2.97016    4.69315
H      4.10571    1.73741    4.47929
H     -2.25262   -0.29272    0.84354
H     -1.37125    0.80720    1.94808
H      1.20599   -0.36496   -0.60730
H     -0.33143   -1.17637   -1.05805
H     -0.45922   -1.95899    1.28369
H     -0.77145    1.36852   -2.07221
H     -2.26648    0.64970   -1.42970
H      1.26648    0.31074    2.14335
