24   

C       -1.2781325517   -1.2659339439    2.3558990515
C       -3.7704654503    0.3022871436    3.2429989710
C       -4.9904586694    0.8868078555    1.2460867111
C       -4.9035448641    0.6000851200    4.0100537287
C       -6.1162768223    1.1835531162    2.0224738618
C       -3.7937011450    0.4228059300    1.8364152359
C       -6.0854771462    1.0382900586    3.4100905423
C       -2.6854717471    0.1432730852    0.9320187222
C       -0.4559275727   -0.7175782248    0.1276010307
C       -1.5263417131   -0.5549163862    1.1402471041
C       -1.0324560488    0.8666829763   -3.0389173770
N       -1.0334143326   -1.8567800284    3.3295638361
N       -0.3204903900   -0.2232678124   -1.0864967359
O       -1.2756949565    0.6523589514   -1.6485700950
Cl      -7.4929706483    1.4058281593    4.3761370951
H       -2.8886312130    0.0053568734    3.7917384123
H       -5.0602633276    1.0115532251    0.1713311556
H       -4.8640939577    0.4952631275    5.0881816332
H       -7.0266494972    1.5292510211    1.5467673380
H       -2.8809220158    0.4903962042   -0.0686529398
H        0.3705343222   -1.3538499361    0.4251931275
H       -1.8512173200    1.4481165480   -3.4719860174
H       -0.9637274860   -0.0906579665   -3.5652392136
H       -0.0962260954    1.4162949377   -3.1748875734
24   

C       -1.4370494550   -1.3674274276    2.3135917274
C       -3.6799366177    0.5025455698    3.2273299291
C       -5.0665872739    0.7147059799    1.2621347233
C       -4.7930805568    0.7732109707    4.0322175015
C       -6.1729450888    0.9859040597    2.0754934133
C       -3.7981109251    0.4577746500    1.8240668906
C       -6.0477931892    1.0141373586    3.4665687093
C       -2.7027396075    0.1672812213    0.9032968785
C       -0.5344303025   -0.8381990739    0.1035015946
C       -1.6012822411   -0.6175782986    1.1064087115
C       -0.9013564022    0.9824946052   -2.9645164013
N       -1.2691793482   -1.9827291708    3.2881996251
N       -0.3377574328   -0.3005031525   -1.0828514811
O       -1.1973899518    0.6953250497   -1.5976865179
Cl      -7.4312337314    1.3494849476    4.4780148583
H       -2.7288251139    0.3545974807    3.7228717106
H       -5.2027363726    0.6943093198    0.1867023213
H       -4.6827223047    0.8004720959    5.1101123203
H       -7.1416147786    1.1739989081    1.6273369970
H       -2.9001452958    0.5056848232   -0.1014660482
H        0.2248735580   -1.5604324770    0.3830328242
H       -1.6611158035    1.6539546268   -3.3742041502
H       -0.8919516352    0.0601596439   -3.5540325119
H        0.0776617908    1.4647860119   -3.0420557039
24   

C       -1.5991347261   -1.4130347955    2.2555269020
C       -3.6268553001    0.6896168714    3.1728114580
C       -5.1322617909    0.5678907268    1.2889344638
C       -4.7156456337    0.9246405862    4.0206967282
C       -6.2155478491    0.8044206351    2.1435724125
C       -3.8174139897    0.5104993856    1.7909041406
C       -6.0178716158    0.9845269657    3.5157023628
C       -2.7281872320    0.2210183677    0.8545898188
C       -0.6435336061   -0.9400533917    0.0486615610
C       -1.6954988140   -0.6509689387    1.0481759948
C       -0.7882328056    1.0453817763   -2.9354858321
N       -1.4895805404   -2.0363190573    3.2332358776
N       -0.3925517796   -0.3866130156   -1.1196730514
O       -1.1579384603    0.6991861874   -1.6006928134
Cl      -7.3721614096    1.2766802538    4.5786807634
H       -2.6321801412    0.6612554830    3.6027768143
H       -5.3177565461    0.4207909637    0.2309040755
H       -4.5506787614    1.0609523558    5.0831813480
H       -7.2220871781    0.8447636209    1.7438791506
H       -2.9196163826    0.5711512310   -0.1482333201
H        0.0483628961   -1.7316674435    0.3148026820
H       -1.4819894621    1.7935395701   -3.3290287518
H       -0.8201337545    0.1616278605   -3.5806518406
H        0.2245829197    1.4591388944   -2.9480117466
24   

C       -1.7518901343   -1.4519596065    2.1933339229
C       -3.5937309400    0.8741194043    3.1105012133
C       -5.1726508497    0.4069260850    1.3454396928
C       -4.6544892422    1.0786816786    4.0006076995
C       -6.2292762731    0.6134742742    2.2405873546
C       -3.8387049712    0.5525955059    1.7658020581
C       -5.9805551177    0.9541266380    3.5741055127
C       -2.7520809865    0.2687134559    0.8132435211
C       -0.7571610261   -1.0257606625   -0.0111797904
C       -1.7896336607   -0.6794248021    0.9890873290
C       -0.6707238523    1.1059920954   -2.8953722459
N       -1.6921777616   -2.0864186799    3.1680858029
N       -0.4551405603   -0.4583207642   -1.1602567573
O       -1.1274393535    0.7024056482   -1.6043904501
Cl      -7.3010481590    1.2098789470    4.6877787444
H       -2.5748347834    0.9683264393    3.4697472821
H       -5.3909424791    0.1284958830    0.3206155839
H       -4.4496262747    1.3308630126    5.0345346924
H       -7.2535814953    0.5035583142    1.9041733290
H       -2.9304432336    0.6459110584   -0.1827619518
H       -0.1317638649   -1.8762349529    0.2372135103
H       -1.2939908591    1.9230891964   -3.2692486891
H       -0.7284130249    0.2687178128   -3.5981183313
H        0.3663353651    1.4496757148   -2.8352061832
24   

C       -1.9064543358   -1.5585773138    2.0808455274
C       -3.5779649107    1.0390691807    3.0225240326
C       -5.1808993591    0.2010525089    1.4263857924
C       -4.6077799283    1.2362320897    3.9500054112
C       -6.2077313020    0.3995250915    2.3573966541
C       -3.8562014732    0.5427831302    1.7410110205
C       -5.9319119190    0.9239248430    3.6246645413
C       -2.7725416628    0.2719534532    0.7684737499
C       -0.8528971518   -1.1059751387   -0.0954966612
C       -1.8775702890   -0.7419811384    0.9056471864
C       -0.5605134516    1.1794750460   -2.8450272516
N       -1.9046074838   -2.2349447181    3.0288237945
N       -0.4972881270   -0.5024189919   -1.2101592584
O       -1.0895767358    0.7193030541   -1.6015148152
Cl      -7.2150539930    1.1732662443    4.7825853696
H       -2.5558530664    1.2725824069    3.2994455621
H       -5.4141080297   -0.2211788150    0.4554372887
H       -4.3803653224    1.6287874422    4.9342088586
H       -7.2284537097    0.1405190245    2.1015272425
H       -2.9162741996    0.7251296964   -0.2013494844
H       -0.2861364866   -2.0050607822    0.1201218224
H       -1.1225775836    2.0538204929   -3.1848877301
H       -0.6364362514    0.3945630960   -3.6041588980
H        0.4907040084    1.4583239562   -2.7247646973
24   

C       -2.1254355799   -1.7787413559    1.9040758250
C       -3.6097717393    1.2638003917    2.9019942514
C       -5.1495685352   -0.0083291454    1.5500893830
C       -4.6310384835    1.5135370593    3.8265901821
C       -6.1683166709    0.2432858215    2.4769985018
C       -3.8589542731    0.5002980384    1.7545949253
C       -5.9190986402    1.0069415125    3.6225058463
C       -2.7809228899    0.2383431729    0.7674248840
C       -0.8697146708   -1.1465563465   -0.1158554349
C       -1.9584923745   -0.8398663736    0.8366322714
C       -0.4845339096    1.2011772444   -2.8020510500
N       -2.2379955909   -2.5588347944    2.7613363873
N       -0.4638321655   -0.5048651365   -1.1915558692
O       -1.0908869386    0.6869360878   -1.6165698998
Cl      -7.1914175873    1.3206556348    4.7767143480
H       -2.6165053503    1.6608556173    3.0790604188
H       -5.3598256742   -0.6059865530    0.6702101467
H       -4.4262995504    2.1025342349    4.7129396246
H       -7.1614643773   -0.1577129934    2.3118088399
H       -2.6925991632    0.9817209429   -0.0099485248
H       -0.3055667481   -2.0481227970    0.0962717624
H       -0.9863669306    2.1251764030   -3.1026191511
H       -0.5678607567    0.4728128160   -3.6145549191
H        0.5734455605    1.4155949086   -2.6221527883
24   

C       -2.3063128210   -1.9825937103    1.6969338578
C       -3.6717560212    1.4761754336    2.7343939181
C       -5.0763208709   -0.1945997034    1.7163771697
C       -4.6955009208    1.7836851890    3.6387566744
C       -6.0987420904    0.1147399009    2.6213241609
C       -3.8383306949    0.4617330580    1.7819738871
C       -5.9162889780    1.1028817411    3.5939845650
C       -2.7806753832    0.1955036753    0.7805720432
C       -0.8901395691   -1.1814814348   -0.1501972968
C       -2.0252426290   -0.9344989748    0.7637023620
C       -0.4536912378    1.2974083610   -2.7065788308
N       -2.5170806855   -2.8521920070    2.4422370854
N       -0.4522222276   -0.4806237185   -1.1750460964
O       -1.1127323271    0.6970022319   -1.5916067403
Cl      -7.1909645479    1.4861306790    4.7243300900
H       -2.7365068254    2.0225701264    2.7816065748
H       -5.2405970023   -0.9579875363    0.9639049055
H       -4.5464904760    2.5572024981    4.3830342682
H       -7.0433786538   -0.4140361323    2.5709426288
H       -2.4321760976    1.0721404363    0.2547345024
H       -0.3299632310   -2.0915039025    0.0344539124
H       -0.9050210465    2.2697447197   -2.9228684048
H       -0.5509418950    0.6571381751   -3.5885381393
H        0.6087555184    1.4428808848   -2.4870857352
24   

C       -2.4040601149   -2.0905856555    1.5690698554
C       -3.7329980790    1.6025720931    2.5981895239
C       -4.9901181546   -0.3179667533    1.8742243134
C       -4.7551948205    1.9314187844    3.4966941696
C       -6.0107875524    0.0125298033    2.7735570468
C       -3.8186970429    0.4536530014    1.7981605649
C       -5.9006007778    1.1364968841    3.5973309812
C       -2.7702458919    0.1739658063    0.8026811958
C       -0.9662604972   -1.2431527582   -0.2355169324
C       -2.0825399778   -0.9979280298    0.7024905639
C       -0.3866816492    1.3836337762   -2.6097752528
N       -2.6545764464   -2.9976030226    2.2551701067
N       -0.4946393550   -0.5007029346   -1.2152858249
O       -1.0914585378    0.7353604946   -1.5509488332
Cl      -7.1731995297    1.5466620703    4.7205338912
H       -2.8596607024    2.2416824302    2.5326980277
H       -5.1095469986   -1.1859581705    1.2351589297
H       -4.6640970430    2.8115981056    4.1223904789
H       -6.8989151569   -0.6057362005    2.8329388949
H       -2.3566162775    1.0568517047    0.3384448449
H       -0.4541782097   -2.1915738355   -0.1157117914
H       -0.7796698201    2.3943714394   -2.7507930594
H       -0.5100703916    0.8218866600   -3.5405842280
H        0.6798105483    1.4502099815   -2.3723447818
24   

C       -2.4674507992   -2.1954160868    1.4683325367
C       -3.8029001540    1.6722982871    2.4542647251
C       -4.9153170383   -0.4207628781    2.0429124787
C       -4.8094847440    2.0285669145    3.3595846348
C       -5.9198482376   -0.0618972008    2.9496682806
C       -3.8191535004    0.4288226513    1.8019796723
C       -5.8739384646    1.1625572580    3.6207860679
C       -2.7753754639    0.1255000407    0.8199558773
C       -1.0705511583   -1.3174800284   -0.3452193444
C       -2.1478895431   -1.0738024070    0.6391497175
C       -0.3382546004    1.4421320733   -2.5168282702
N       -2.7180203101   -3.1270498179    2.1207358416
N       -0.5806524798   -0.5442229399   -1.2919581984
O       -1.1077104536    0.7433207485   -1.5381559651
Cl      -7.1273945042    1.6073715693    4.7522885987
H       -2.9935140318    2.3694379368    2.2688555407
H       -5.0068949998   -1.3671526917    1.5225730334
H       -4.7687184252    2.9859252454    3.8658964126
H       -6.7475302155   -0.7374336561    3.1319732369
H       -2.3362516786    1.0043680181    0.3731552968
H       -0.6050007858   -2.2957186980   -0.2951831223
H       -0.6819263714    2.4779516609   -2.5867014575
H       -0.4523110562    0.9636084876   -3.4941418193
H        0.7209928085    1.4404095012   -2.2406450425
24   

C       -2.2733664617   -2.2025439336    1.9976956582
C       -3.9751266345    1.6758229442    2.9373678536
C       -4.7587528948   -0.4140081401    2.0437311949
C       -5.2721269201    1.9787935862    3.3673287187
C       -6.0545339097   -0.1074420379    2.4770082318
C       -3.6820258164    0.4639956177    2.2867020419
C       -6.3232988906    1.0877281837    3.1465555736
C       -2.3100903529    0.2317137599    1.8448447027
C       -0.2624556254   -1.0790282296    1.1797553704
C       -1.6589286615   -0.9563694792    1.6571434247
C        1.3756147717    2.0112716651    0.3903631625
N       -2.7484739761   -3.2341064206    2.2561535629
N        0.5913893733   -0.1690784485    0.7575977187
O        0.2365216637    1.1950064944    0.6634036299
Cl      -7.9409373223    1.4658744559    3.6846553085
H       -3.1855955662    2.3944256657    3.1264775514
H       -4.6279528414   -1.3376238988    1.4949521168
H       -5.4689822978    2.9142079299    3.8780470351
H       -6.8641901222   -0.8020090099    2.2851887042
H       -1.7247146060    1.1367213818    1.8119100291
H        0.1377036574   -2.0870049178    1.1664374635
H        1.0986010723    3.0670590794    0.4575109335
H        1.7503332249    1.8058981137   -0.6168536081
H        2.1712757457    1.8094512226    1.1146124990
24   

C       -2.2782472577   -2.2651927881    1.8152363694
C       -3.9961507206    1.7217360528    2.7601748880
C       -4.7500853089   -0.5027056508    2.2505015989
C       -5.2772663438    2.0542220185    3.2139077673
C       -6.0301121543   -0.1642024768    2.7075638980
C       -3.6928792103    0.4336197520    2.2785337927
C       -6.3060763975    1.1132685411    3.1958310940
C       -2.3293197772    0.1864521292    1.8271843570
C       -0.2975235261   -1.0806368916    1.0395929072
C       -1.6857161834   -0.9904576275    1.5528313242
C        1.4136247113    2.0354501088    0.5651786523
N       -2.7204050437   -3.3251764017    2.0102040755
N        0.5684311033   -0.1497929337    0.6924478965
O        0.2520342729    1.2256114624    0.7470289445
Cl      -7.9050727701    1.5279493669    3.7619992326
H       -3.2268161773    2.4849487175    2.7944499236
H       -4.6440549054   -1.5015433965    1.8547572792
H       -5.4786293150    3.0523360537    3.5851868377
H       -6.8237640017   -0.9017854519    2.6762844179
H       -1.7504789092    1.0933484262    1.7792780082
H        0.0892599213   -2.0874531987    0.9246240039
H        1.1607198831    3.0866404858    0.7295377284
H        1.7966591469    1.9175514550   -0.4528946607
H        2.1943836692    1.7459964966    1.2757306999
24   

C       -2.3531074729   -2.2647335883    1.4858522733
C       -4.0373094278    1.7617564716    2.5824471220
C       -4.7032566264   -0.5445049875    2.4588031237
C       -5.3148299822    2.1102323118    3.0331907950
C       -5.9805343177   -0.1874771757    2.9107331485
C       -3.6934809692    0.4284330712    2.2824798444
C       -6.2995221801    1.1386860215    3.2019286952
C       -2.3348400776    0.1771583629    1.8211768063
C       -0.3013077822   -1.0635512161    1.0022402663
C       -1.7116454066   -0.9874404719    1.4588991893
C        1.5224259291    2.0303929945    0.8201366380
N       -2.8188353290   -3.3327162618    1.4860267195
N        0.6189149212   -0.1357264584    0.8273658307
O        0.3667873514    1.2318323864    1.0732181458
Cl      -7.8947674583    1.5722320138    3.7645485073
H       -3.3050315671    2.5529699199    2.4669006239
H       -4.5754186225   -1.5965051104    2.2663380851
H       -5.5477908852    3.1451325776    3.2553621716
H       -6.7376020403   -0.9528106803    3.0376425228
H       -1.7596485011    1.0851745256    1.7755303835
H        0.0535903104   -2.0602180102    0.7627189999
H        1.2987469513    3.0801713274    1.0297293268
H        1.8242084878    1.9352484314   -0.2274406351
H        2.3499507624    1.7104340128    1.4608114606
24   

C       -2.4824315790   -2.1770123429    1.1737178018
C       -4.1145119146    1.7727755048    2.3875968722
C       -4.6148144859   -0.5605952122    2.6728124839
C       -5.3951953555    2.1051082333    2.8426738202
C       -5.8960279335   -0.2215621518    3.1261276550
C       -3.6926259620    0.4337010917    2.2776639051
C       -6.3001580442    1.1109808025    3.2127176098
C       -2.3392001839    0.1908555698    1.7946307267
C       -0.3269548779   -1.0677016757    0.9458629989
C       -1.7482016734   -0.9634153387    1.3553504108
C        1.5909215407    1.9578494362    1.1246254894
N       -3.0384637057   -3.1878694047    1.0122441210
N        0.6528320720   -0.1863932211    0.9572304788
O        0.4713230263    1.1292446995    1.4378701636
Cl      -7.8985450707    1.5254540184    3.7807560824
H       -3.4449635328    2.5788366370    2.1091855677
H       -4.3805184818   -1.6144634986    2.6784925794
H       -5.6934774143    3.1448636209    2.9102223280
H       -6.5851750402   -1.0040213144    3.4223098640
H       -1.7675646461    1.1008327885    1.7234544437
H       -0.0243049774   -2.0375573834    0.5660207121
H        1.3724279047    2.9936411827    1.3991609420
H        1.8072130070    1.9160568722    0.0523691867
H        2.4721226870    1.6219582343    1.6793714047
24   

C       -2.5851631152   -2.0890485921    1.0446093989
C       -4.2092353979    1.7544030841    2.2265763371
C       -4.5040965444   -0.5452241232    2.8624679702
C       -5.4922899094    2.0505570364    2.7008481494
C       -5.7877706349   -0.2447407915    3.3343405172
C       -3.6928330396    0.4471586397    2.2741271506
C       -6.2962753255    1.0529111102    3.2539989405
C       -2.3362554356    0.2226941760    1.7834328810
C       -0.3847234419   -1.0485565623    0.8207124565
C       -1.7901876614   -0.9211735942    1.2695007613
C        1.6517199351    1.8665403860    1.2812206028
N       -3.2022739734   -3.0590752765    0.8578697459
N        0.6266517986   -0.2076484964    0.8931187390
O        0.4974071862    1.0575499848    1.5080611441
Cl      -7.8975729778    1.4229352223    3.8441134934
H       -3.6148193975    2.5570986378    1.8048438839
H       -4.1562846630   -1.5617429642    2.9930656504
H       -5.8716251661    3.0640046171    2.6407235046
H       -6.3952589554   -1.0264625116    3.7755075356
H       -1.7675644689    1.1348667752    1.6972049030
H       -0.1291678546   -1.9936908266    0.3540925912
H        1.4715128491    2.8798859903    1.6507966222
H        1.8770964882    1.9170471266    0.2111774445
H        2.5134730920    1.4448295606    1.8071748740
24   

C       -2.6698374659   -1.9958177768    0.9641829168
C       -4.2958687858    1.7215020375    2.0808166581
C       -4.3911863389   -0.4900534415    3.0226822231
C       -5.5808264705    1.9845237399    2.5701835337
C       -5.6765062626   -0.2242303922    3.5098470715
C       -3.6882884040    0.4696779680    2.2700833705
C       -6.2858994406    1.0123745399    3.2836440042
C       -2.3200100562    0.2621683884    1.7899872250
C       -0.4412418813   -1.0100359742    0.6954830469
C       -1.8252607721   -0.8645447917    1.1978699391
C        1.7263651439    1.7660706929    1.3752789284
N       -3.3322246633   -2.9347074358    0.7742134276
N        0.5987059522   -0.2085597966    0.7974818335
O        0.5243350927    1.0080225695    1.5120139737
Cl      -7.8896797863    1.3411423428    3.8911886055
H       -3.7727176847    2.4994553742    1.5362182447
H       -3.9453210900   -1.4520755262    3.2474208484
H       -6.0387786842    2.9515319267    2.3977883290
H       -6.2063247817   -0.9827811274    4.0742405554
H       -1.7477577560    1.1739634650    1.7124391704
H       -0.2332494046   -1.9300186018    0.1601676999
H        1.5916778616    2.7560917208    1.8198388492
H        1.9821561383    1.8867325218    0.3177834866
H        2.5498681043    1.2570884172    1.8850993894
24   

C       -2.7297967474   -1.8867783026    0.8732234419
C       -4.3885225079    1.6604323573    1.9415809581
C       -4.2807531528   -0.4013307579    3.1789364435
C       -5.6734152324    1.8945708057    2.4461073009
C       -5.5657328829   -0.1653194591    3.6818463556
C       -3.6862883266    0.4921697844    2.2723346694
C       -6.2764934566    0.9813835257    3.3158176371
C       -2.3051512318    0.3077274377    1.7967008725
C       -0.4901256471   -0.9235331499    0.5594631683
C       -1.8518796346   -0.7833601709    1.1180459170
C        1.7860827726    1.6999696925    1.4585523250
N       -3.4216440407   -2.8015742517    0.6715641795
N        0.5703896448   -0.1542361635    0.6901615259
O        0.5421646196    1.0009170812    1.5035036159
Cl      -7.8801817404    1.2738440542    3.9418927842
H       -3.9396292974    2.3897999740    1.2767568352
H       -3.7454535007   -1.2906338438    3.4930593738
H       -6.2106493151    2.7926721514    2.1644972541
H       -6.0168816812   -0.8756367863    4.3648277965
H       -1.7306394975    1.2207950183    1.7483269277
H       -0.3215834422   -1.8069772022   -0.0465105364
H        1.6935885290    2.6532310854    1.9864265117
H        2.0738320353    1.8980112390    0.4211702457
H        2.5683809846    1.1035653138    1.9376436775
24   

C       -2.8007515620   -1.7605432149    0.7368121251
C       -4.4771094796    1.5474808873    1.8092121514
C       -4.1805235947   -0.2847690089    3.3438705214
C       -5.7661812029    1.7590964709    2.3131954465
C       -5.4695552385   -0.0712253016    3.8466370303
C       -3.6799458227    0.5031366708    2.2969097657
C       -6.2762086753    0.9490824810    3.3327784863
C       -2.2906528192    0.3347038069    1.8132430725
C       -0.5331916232   -0.8457501278    0.4518998157
C       -1.8815513458   -0.7065345451    1.0410199660
C        1.8450863420    1.6040863577    1.5528928432
N       -3.5273040704   -2.6331745217    0.4784785882
N        0.5530370255   -0.1231372383    0.6285447330
O        0.5696558419    0.9631379248    1.5321109477
Cl      -7.8850422700    1.2130136928    3.9583644730
H       -4.0986145082    2.1929966475    1.0246625033
H       -3.5673507307   -1.0755301352    3.7618141130
H       -6.3795910965    2.5581644997    1.9135693623
H       -5.8502374733   -0.7002744542    4.6427887035
H       -1.6935346056    1.2340959222    1.8462941898
H       -0.4017081316   -1.6836204056   -0.2239086392
H        1.7920104305    2.5130758676    2.1585652518
H        2.1512734066    1.8744244129    0.5373706664
H        2.5944102852    0.9335925282    1.9844246053
24   

C       -2.8983910744   -1.5265933086    0.4991227200
C       -4.5765784561    1.3523062547    1.6566587249
C       -4.0787118184   -0.1187921083    3.5019260073
C       -5.8830010229    1.5075973355    2.1355822770
C       -5.3860503734    0.0386791942    3.9777311519
C       -3.6613991638    0.5378197939    2.3353332071
C       -6.2994047732    0.8536988155    3.3002346356
C       -2.2727705683    0.3747913830    1.8349642537
C       -0.5455175675   -0.8084477368    0.4324797654
C       -1.9098598969   -0.6016636496    0.9640328724
C        1.9172202995    1.5270362411    1.5970661218
N       -3.6811727567   -2.2930062316    0.1041834400
N        0.5710460044   -0.1460655947    0.6519708568
O        0.6060066228    0.9684492573    1.5184882340
Cl      -7.9290791796    1.0498663254    3.8961267497
H       -4.2729829599    1.8633038110    0.7498518049
H       -3.3858110374   -0.7580646051    4.0374661381
H       -6.5840339058    2.1375932626    1.6006914517
H       -5.6999603977   -0.4761515967    4.8781974559
H       -1.5686880976    1.0980589643    2.2169088461
H       -0.4341521109   -1.6410668843   -0.2533972011
H        1.9124637134    2.3869562414    2.2726893575
H        2.2466320456    1.8568489785    0.6069360092
H        2.6223972667    0.7817975070    1.9778267559
24   

C       -2.9617242918   -1.2820609658    0.2518503001
C       -4.6671479041    1.1338420614    1.5434658821
C       -3.9880707729    0.0947509093    3.6117530476
C       -5.9770470266    1.2348932336    2.0267903307
C       -5.2996703472    0.1975075237    4.0909936658
C       -3.6519687322    0.5852748686    2.3401144060
C       -6.3043064943    0.7732335603    3.3060173513
C       -2.2745298067    0.4163310155    1.8226651801
C       -0.5624649987   -0.7619183697    0.4047593926
C       -1.9398718424   -0.4912049836    0.8676235329
C        1.9235935050    1.4811340185    1.6919004702
N       -3.7735514131   -1.9347661602   -0.2687797181
N        0.5676237656   -0.1470458963    0.6840991841
O        0.5932268650    0.9934842078    1.5177957061
Cl      -7.9385634990    0.9027617709    3.9075456997
H       -4.4371118683    1.4832549936    0.5430073624
H       -3.2279773764   -0.3690925439    4.2302273878
H       -6.7505359906    1.6688929940    1.4040287561
H       -5.5467608353   -0.1765792829    5.0776221619
H       -1.5030886281    0.8321808192    2.4539472644
H       -0.4555657304   -1.5887549019   -0.2887698854
H        1.9295530728    2.2803150410    2.4383399030
H        2.3044784729    1.8768115764    0.7455170010
H        2.5821481420    0.6757933009    2.0322970179
24   

C       -2.9913810747   -1.1586970694    0.0725225597
C       -4.7464152155    0.9702636401    1.4980091790
C       -3.9207629511    0.2964010866    3.6637401211
C       -6.0380595959    1.0758136923    2.0270537010
C       -5.2149283200    0.4044711801    4.1870412015
C       -3.6664225934    0.5959790239    2.3136018339
C       -6.2838756049    0.7979056722    3.3754528080
C       -2.3050202075    0.4131539902    1.7825601359
C       -0.5940808065   -0.6712500744    0.2888030755
C       -1.9741429113   -0.4198921491    0.7565050256
C        1.9152452524    1.3973875309    1.8036997260
N       -3.8007017927   -1.7625860742   -0.5076173493
N        0.5415176330   -0.0974002873    0.6275246684
O        0.5760623632    0.9736786146    1.5484882190
Cl      -7.8967573577    0.9304701354    4.0315196635
H       -4.5853400935    1.1829675692    0.4468706056
H       -3.1115264039   -0.0254907524    4.3094630644
H       -6.8607838084    1.3703148415    1.3859909367
H       -5.3981582616    0.1760276906    5.2304491158
H       -1.5242476815    0.7475863359    2.4493859926
H       -0.4890828963   -1.4429016250   -0.4659513240
H        1.9222980999    2.1334224556    2.6124662960
H        2.3414195263    1.8535320890    0.9050735537
H        2.5345266966    0.5441835597    2.0982084819
24   

C       -2.9770078435   -1.1003984606   -0.0854596414
C       -4.8122866975    0.7848953566    1.4792181767
C       -3.8572551228    0.4598170298    3.6730562081
C       -6.0806845755    0.9158679528    2.0567958434
C       -5.1291051349    0.5930521758    4.2427307946
C       -3.6781661000    0.5576892843    2.2793291669
C       -6.2513771771    0.8217256303    3.4411491669
C       -2.3295670035    0.3707284678    1.7380345428
C       -0.5976771623   -0.5712990192    0.1708038877
C       -1.9841849656   -0.3786066222    0.6501094653
C        1.8973583333    1.3232068674    1.9184100228
N       -3.7658207127   -1.6876140131   -0.7094422804
N        0.5316994681   -0.0182480291    0.5619064124
O        0.5583885645    0.9665882591    1.5746040800
Cl      -7.8364482511    0.9845971858    4.1555731544
H       -4.7214403690    0.8750058408    0.4027973740
H       -3.0072028256    0.2716766264    4.3191925678
H       -6.9439765614    1.0911397988    1.4253879032
H       -5.2526364479    0.5142256185    5.3165215885
H       -1.5479825390    0.6771300749    2.4163652272
H       -0.4794238190   -1.2764655264   -0.6446468000
H        1.8920656871    1.9806654490    2.7922738299
H        2.3714349846    1.8470589878    1.0829634886
H        2.4810269128    0.4278302996    2.1548718755
24   

C       -2.9449408494   -1.0331583412   -0.2517155914
C       -4.8735734800    0.5957927220    1.4801078504
C       -3.7998424452    0.6202071600    3.6427355037
C       -6.1162139307    0.7589142288    2.1041532252
C       -5.0468107468    0.7847390312    4.2568403604
C       -3.6901476515    0.5129796329    2.2400943754
C       -6.2157132985    0.8519724435    3.4947683101
C       -2.3529707718    0.3251781605    1.6844087405
C       -0.5895820718   -0.4549119578    0.0608407683
C       -1.9843552283   -0.3311422658    0.5425998709
C        1.8802080828    1.2422473984    2.0311867745
N       -3.7035759918   -1.6059802919   -0.9247572459
N        0.5306884467    0.0743581887    0.5082034386
O        0.5458480225    0.9566385739    1.6113774334
Cl      -7.7698861454    1.0537775104    4.2649680789
H       -4.8581509549    0.5605598928    0.3981764700
H       -2.9147756974    0.5652116404    4.2665487798
H       -7.0158802846    0.8176473061    1.5025467379
H       -5.1136484446    0.8583207870    5.3360366734
H       -1.5724625570    0.6215935302    2.3669353442
H       -0.4532317529   -1.0826773986   -0.8130137948
H        1.8602123424    1.8130703379    2.9637644718
H        2.3954345756    1.8304435378    1.2659095709
H        2.4338178306    0.3129314484    2.1991583090
24   

C       -2.9245093853   -0.9226931648   -0.4107200408
C       -4.9311168824    0.3851077035    1.5176712303
C       -3.7690450264    0.7738806212    3.5951830499
C       -6.1519238694    0.5749409528    2.1768507323
C       -4.9945814300    0.9637748520    4.2435003301
C       -3.7078099340    0.4632814722    2.2183410361
C       -6.1969250956    0.8611092449    3.5425146566
C       -2.3785682327    0.2853814995    1.6476461740
C       -0.5906080125   -0.3393187224   -0.0166853967
C       -1.9932225468   -0.2726569041    0.4582696633
C        1.8705499539    1.1283951284    2.1417820532
N       -3.6482214330   -1.4592599670   -1.1491902505
N        0.5255948720    0.1450490161    0.4893678360
O        0.5383804966    0.9072027317    1.6785427439
Cl      -7.7249406641    1.0949608826    4.3548306254
H       -4.9871869180    0.2043988943    0.4541072115
H       -2.8598849475    0.8604863309    4.1795255951
H       -7.0789631744    0.5049957463    1.6195272742
H       -5.0175193839    1.1920368204    5.3027218169
H       -1.5997073485    0.5790212967    2.3313462351
H       -0.4410412806   -0.8782095874   -0.9460209345
H        1.8453662474    1.6131668526    3.1217502650
H        2.4085625320    1.7732964748    1.4405435124
H        2.4045651388    0.1772253960    2.2331879519
24   

C       -2.9225421053   -0.6403593800   -0.5814977456
C       -4.9507884603    0.1259395058    1.6127475290
C       -3.7594659596    0.9528811709    3.5348599623
C       -6.1598532612    0.3241801208    2.2912327106
C       -4.9729374575    1.1472143590    4.2037543104
C       -3.7113908060    0.4357510970    2.2202635520
C       -6.1845005502    0.8346830087    3.5889718871
C       -2.3866524486    0.2816717306    1.6344289465
C       -0.5832636736   -0.2680833400   -0.0392201183
C       -1.9963171791   -0.1813317332    0.4059734288
C        1.9221691880    0.8717547840    2.2748414044
N       -3.6274672455   -1.0267295534   -1.4248255777
N        0.5473854330    0.0612094076    0.5535439630
O        0.5830993339    0.6177307323    1.8510136503
Cl      -7.6984786000    1.0773797936    4.4246157695
H       -5.0484381438   -0.2715583051    0.6155931075
H       -2.8449212869    1.2118557964    4.0565143858
H       -7.0952969110    0.0778152347    1.8020874929
H       -4.9784040936    1.5451013804    5.2118465815
H       -1.6128979372    0.5903869225    2.3151609028
H       -0.4367194208   -0.6737072869   -1.0345013959
H        1.9165990684    1.2860414729    3.2869432715
H        2.4007726558    1.5893430665    1.6014031138
H        2.5003806804   -0.0573933221    2.2763650913
