28

C      2.94850    0.34508    0.82441
C      3.94445   -0.61960    1.23243
C      2.08490   -0.30095   -0.00730
C      3.61258   -1.79175    0.60913
C     -0.39384    1.23559    0.99354
C     -1.46284    0.15186    0.85651
C     -0.22778   -0.93014   -0.83157
C      0.87842    0.14255   -0.78606
C      5.09865   -0.36100    2.15696
C      4.19641   -3.16249    0.59369
N      0.39235    1.42341   -0.23819
O      2.47559   -1.60911   -0.15373
O     -0.88402   -1.07886    0.42326
H      2.88473    1.38691    1.10856
H     -0.85099    2.19424    1.26287
H      0.29354    0.95674    1.79768
H     -1.94595   -0.05659    1.81593
H     -2.23857    0.46974    0.13771
H     -0.96168   -0.64101   -1.60316
H      0.18041   -1.91018   -1.08574
H      1.18608    0.33324   -1.82409
H      4.75133   -0.02106    3.13945
H      5.70194   -1.25975    2.31209
H      5.75935    0.41785    1.75893
H      3.48396   -3.90430    0.97310
H      4.48190   -3.46487   -0.42071
H      5.08964   -3.19799    1.22143
H     -0.19391    1.86871   -0.94222
