39

C      1.93524   -4.47804   -1.24728
C      2.84810   -5.33480   -0.61358
C      0.57468   -4.51199   -0.92345
C      2.42189   -6.24732    0.36019
C     -4.50471   -9.99511   -0.18109
C      0.14552   -5.42205    0.04076
C     -4.09866   -9.08522    0.85365
C      1.06564   -6.26776    0.65465
C     -5.61160  -10.67620    0.25507
C     -4.99931   -9.24338    1.91732
C     -1.25699   -5.61504    0.50745
C     -2.93290   -8.21656    0.68617
C     -6.41789  -11.73615   -0.42639
C     -5.14441   -8.59312    3.25957
C     -7.00001  -10.67696    2.37509
C     -2.49516   -7.29360    1.84647
N     -5.90864  -10.20550    1.53707
N     -1.27766   -6.57569    1.52146
O     -2.24510   -5.02125    0.11145
O     -2.29162   -8.19119   -0.35837
O      0.23021   -8.71548    1.48978
O      0.65963   -6.93797    3.21777
S      0.25117   -7.30281    1.86090
H      2.29273   -3.78036   -1.99931
H      3.90020   -5.29247   -0.88076
H     -0.14726   -3.85774   -1.40272
H      3.12156   -6.91229    0.85708
H     -4.00481  -10.11154   -1.13248
H     -6.42422  -12.68079    0.13115
H     -7.46063  -11.43362   -0.58376
H     -5.98257  -11.93616   -1.40787
H     -6.09665   -8.05416    3.34086
H     -5.12052   -9.33364    4.06811
H     -4.35243   -7.87560    3.45452
H     -6.62222  -11.20973    3.25446
H     -7.62166   -9.84207    2.71141
H     -7.62735  -11.35945    1.80350
H     -2.32889   -7.86766    2.76059
H     -3.27337   -6.55186    2.04382
