39

C      3.23149   -0.52613    7.39150
C      5.19458    4.35144   -2.68149
C      2.80561   -1.13024    6.22584
C      4.55256    3.38605   -1.90414
C      3.25835    0.88520    7.50396
C      1.54808   -0.04212    2.87404
C      4.41990    5.16416   -3.51404
C      2.48765    4.13271   -2.84918
C      2.38917   -0.33239    5.13022
C      3.16041    3.25976   -1.97979
C      2.40421    1.09497    5.21354
C      1.93793   -0.88324    3.89388
C      2.85549    1.65724    6.43992
C      1.60470    1.36186    3.07911
C      1.06661    2.60225   -0.51144
C      2.88904    1.84185    0.23150
C      2.40940    2.22333   -1.19298
C      1.14337    2.29444    1.97658
N      3.08590    5.06423   -3.60284
N      2.02267    1.92225    4.19974
N      1.46792    1.78175    0.65557
O      1.92006   -2.24420    3.79527
F      2.88480    3.00139    6.55452
H      3.55077   -1.13035    8.23586
H      6.27314    4.47735   -2.64354
H      2.78226   -2.21049    6.13229
H      5.12730    2.74082   -1.24343
H      3.59116    1.37221    8.41561
H      1.20678   -0.41671    1.91216
H      4.88776    5.92824   -4.13302
H      1.40257    4.07712   -2.93863
H      1.02267    3.67918   -0.28490
H      0.13212    2.29237   -0.99084
H      3.44792    0.90944    0.36192
H      3.43977    2.66537    0.71297
H      2.27731    1.31853   -1.79563
H      0.05155    2.39805    2.03815
H      1.57645    3.28921    2.17109
H      1.58885   -2.49264    2.91655
