25

C     -0.03977   -2.09179    1.93978
C      7.09921    0.44853    7.10492
C      1.03354   -1.64254    2.70463
C      6.09466    0.87670    6.25720
C     -0.77476   -1.14583    1.22184
C      7.16980   -0.92684    7.36719
C      1.34734   -0.27499    2.73667
C      5.23749   -0.11093    5.73763
C      0.53097    0.58840    1.96851
C      4.13837    0.26245    4.82424
C      2.47814    0.15708    3.54913
N     -0.49724    0.16483    1.23466
N      6.32628   -1.82359    6.84457
N      5.35575   -1.41547    6.02632
N      3.24742   -0.62238    4.26931
N      3.94393    1.52068    4.47657
O      2.83612    1.45993    3.62418
O      0.78028    1.91543    1.95704
H     -0.30245   -3.14361    1.89859
H      7.80723    1.13986    7.55285
H      1.64478   -2.32593    3.28564
H      5.95542    1.91964    5.99158
H     -1.62266   -1.44549    0.60896
H      7.93115   -1.34184    8.02343
H      0.10473    2.30701    1.37122
