21

C      1.38861   -2.97970    0.11415
C      0.81125   -1.88242    0.76314
C      2.70410   -3.35652    0.39214
C      2.86734   -1.52037    1.98805
C      1.54448   -1.14522    1.70087
C      3.42566   -2.61366    1.33079
C      0.74884   -0.28348    3.90549
C      0.92812    0.03113    2.43586
N      1.51177    0.11136    4.86481
N     -0.37358   -1.04991    4.23159
O      2.56353    0.95170    4.38531
Br     5.23822   -3.11652    1.72010
H      0.81389   -3.54449   -0.61513
H     -0.21087   -1.59283    0.52994
H      3.15942   -4.20483   -0.10817
H      3.43913   -0.95763    2.71969
H      1.56428    0.91238    2.34354
H     -0.05184    0.26821    2.01236
H     -0.53674   -1.80796    3.57448
H     -0.34002   -1.39270    5.18798
H      2.99923    1.21077    5.21240
