43

C      1.30509    6.77890   -3.84495
C      0.62392    6.47555   -5.04241
C      1.06175    6.04037   -2.68795
C     -0.29720    5.42913   -5.11975
C      0.12764    5.00294   -2.75553
C     -0.52112    4.68870   -3.95491
C     -0.34797    4.05765   -1.73914
C     -0.26226    1.10763   -2.11082
C      1.36589   -1.44911   -0.11052
C      1.05916   -0.84564   -1.49201
C     -1.14006   -0.54244   -0.42720
C     -0.59404   -0.33773    1.00874
C      0.95416   -0.50324    1.03228
C     -1.08737    0.96604    1.64729
C      1.72872    0.81932    0.94663
C     -1.55159    1.94511   -1.94186
N     -1.35321    3.56486   -3.78471
N     -1.35171    3.31057   -2.37837
N     -0.19776   -0.08153   -1.44550
O      0.00613    3.86757   -0.57687
O      0.64710    1.51948   -2.82939
O      1.23204   -1.13547    2.30068
H      2.02251    7.59444   -3.83116
H      0.82906    7.06451   -5.93269
H      1.57039    6.25636   -1.75274
H     -0.80092    5.19095   -6.05268
H      0.84730   -2.40325    0.03153
H      2.43905   -1.66355   -0.04952
H      1.84292   -0.15851   -1.81059
H      0.98749   -1.63496   -2.25095
H     -1.32122   -1.60772   -0.60929
H     -2.10466   -0.05063   -0.54933
H     -0.97325   -1.17033    1.61163
H     -0.76958    1.85307    1.09170
H     -0.71172    1.05720    2.67074
H     -2.18267    0.96907    1.69912
H      1.54736    1.42647    1.83600
H      1.45994    1.41956    0.07530
H      2.80556    0.61334    0.88930
H     -1.85810    1.99655   -0.89871
H     -2.36902    1.49716   -2.51407
H     -2.31041    3.73266   -4.09583
H      2.19158   -1.09886    2.44561
