39

C     -4.72450   -4.35190    5.07462
C      3.80437   -1.41840   -0.38448
C     -3.59251   -4.57350    4.31668
C      2.54130   -0.91095   -0.08577
C     -5.44098   -3.13559    4.96213
C     -1.60588   -2.71527    1.74735
C      4.91716   -0.58157   -0.24025
C      3.60701    1.16130    0.45329
C     -3.14199   -3.57613    3.41518
C      2.42258    0.41835    0.34817
C     -3.84420   -2.33808    3.27899
C     -1.98098   -3.73086    2.60081
C     -5.00172   -2.16905    4.08865
C     -2.38718   -1.53081    1.70027
C      0.22612    0.22563    1.70603
C     -0.05975    0.76123   -0.31525
C      1.09471    1.03281    0.69474
C     -2.00403   -0.41781    0.74516
N      4.83008    0.68957    0.17117
N     -3.46447   -1.33457    2.43894
N     -0.56546   -0.31138    0.57204
O     -1.29619   -4.90465    2.72071
F     -5.68872   -1.01213    3.98787
H     -5.07676   -5.11129    5.76682
H      3.93333   -2.44218   -0.72558
H     -3.03835   -5.50220    4.39789
H      1.64949   -1.52589   -0.18463
H     -6.33258   -2.94943    5.55327
H     -0.72494   -2.78817    1.11459
H      5.91776   -0.94796   -0.46553
H      3.56414    2.19934    0.78457
H      0.73523   -0.53314    2.30919
H     -0.36031    0.88176    2.36732
H     -0.74540    1.61930   -0.39149
H      0.22013    0.42940   -1.32104
H      1.22875    2.08426    0.95557
H     -2.44881   -0.62773   -0.23697
H     -2.46042    0.51494    1.11574
H     -0.53145   -4.88771    2.12208
