21

C      2.13412   -0.80745    0.01777
C      1.01800   -0.27298    0.66310
C      3.02638   -1.64208    0.70227
C      1.65655   -1.39986    2.70734
C      0.76894   -0.56778    2.01351
C      2.76287   -1.91813    2.03794
C     -0.27001    1.53931    2.85416
C     -0.43262    0.04118    2.71204
N     -0.88246    2.44091    2.16805
N      0.60840    1.96119    3.85560
O     -1.80823    1.86207    1.24574
F      3.61472   -2.72592    2.72367
H      2.31689   -0.57646   -1.02823
H      0.33228    0.37879    0.12848
H      3.90031   -2.07040    0.22141
H      1.49582   -1.65760    3.75081
H     -1.34234   -0.15885    2.14511
H     -0.54846   -0.38691    3.71180
H      1.45362    1.39880    3.90257
H      0.82627    2.95143    3.78546
H     -2.23335    2.65166    0.87596
