25

C      1.14775    0.42553    1.91217
C     -1.27367   -1.52201   -1.81639
C      1.21757   -0.58458    0.75806
C      0.20815   -1.25655   -1.51044
C      1.19326    1.86831    1.38220
C      0.29263    1.18995   -0.76022
C     -1.88335   -1.45944   -0.41592
C      0.16672   -0.28086   -0.31742
N      0.19576    2.15058    0.33953
O     -1.15933   -0.43317    0.27157
H      0.21231    0.27114    2.46220
H      1.97134    0.25575    2.61701
H     -1.68824   -0.72815   -2.44625
H     -1.44667   -2.48025   -2.31463
H      2.21180   -0.55137    0.29080
H      1.06944   -1.60620    1.12728
H      0.70814   -2.18765   -1.21971
H      0.75408   -0.83874   -2.36144
H      1.04933    2.58370    2.19921
H      2.18411    2.07221    0.95298
H      1.26324    1.33179   -1.25442
H     -0.48750    1.41660   -1.49525
H     -2.94366   -1.19030   -0.40425
H     -1.76275   -2.42106    0.10633
H     -0.73498    2.05839    0.74630
