38

C     -3.44988    1.87264   -9.99736
C     -4.25995    3.01164   -9.94294
C     -2.65907    1.53426   -8.89921
C     -4.26995    3.81755   -8.80235
C     -1.06937    1.25132   -4.68891
C     -2.66714    2.32992   -7.75032
C     -3.46586    3.48183   -7.71052
C     -0.01806    1.67898   -5.56007
C     -2.22228    1.45262   -5.44274
C     -0.89218    0.72190   -3.34566
C     -0.48113   -0.63866   -0.86448
C     -2.88788   -0.85981   -0.89789
C     -0.36285   -2.08343   -1.36074
C     -2.71870   -2.30285   -1.37741
C      1.45411    1.69270   -5.28055
N     -0.48503    2.10284   -6.73348
N     -1.89845    0.38127   -2.61376
N     -1.84364    1.96519   -6.65139
N     -1.74565   -0.03566   -1.31733
O     -1.48024   -2.85603   -0.91775
Cl    -3.44707    4.52343   -6.30856
Cl    -3.86967    1.12504   -5.08913
H     -3.43817    1.24965  -10.88684
H     -4.88414    3.28055  -10.79060
H     -2.02320    0.65441   -8.91142
H     -4.88580    4.70995   -8.75683
H      0.14585    0.65090   -3.01037
H     -0.50175   -0.63442    0.22991
H      0.37187   -0.02958   -1.17092
H     -3.79544   -0.41434   -1.30999
H     -2.94095   -0.83623    0.19602
H     -0.30208   -2.10707   -2.45895
H      0.52801   -2.56783   -0.95107
H     -3.50691   -2.94805   -0.97964
H     -2.75713   -2.33185   -2.47692
H      1.83002    0.68679   -5.06179
H      1.98805    2.07838   -6.15174
H      1.69076    2.32910   -4.42063
