24   

C       -1.2781330235   -1.2659346026    2.3558987649
C       -3.7704652547    0.3022874683    3.2429989801
C       -4.9904586694    0.8868078555    1.2460867111
C       -4.9035445974    0.6000855514    4.0100537946
C       -6.1162767344    1.1835532812    2.0224739323
C       -3.7937011450    0.4228059300    1.8364152359
C       -6.0854769322    1.0382904082    3.4100906387
C       -2.6854717471    0.1432730852    0.9320187222
C       -0.4559273286   -0.7175778213    0.1276012280
C       -1.5263417131   -0.5549163862    1.1402471041
C       -1.0324564004    0.8666829953   -3.0389171279
N       -1.0334152222   -1.8567811629    3.3295633637
N       -0.3204898922   -0.2232669266   -1.0864963122
O       -1.2756943735    0.6523600308   -1.6485695167
Cl      -7.4929703377    1.4058286776    4.3761372675
H       -2.8886309012    0.0053573136    3.7917383116
H       -5.0602633903    1.0115530783    0.1713311428
H       -4.8640935877    0.4952637201    5.0881817108
H       -7.0266494414    1.5292511618    1.5467674519
H       -2.8809219639    0.4903962829   -0.0686529269
H        0.3705344681   -1.3538496994    0.4251932452
H       -1.8512180076    1.4481161623   -3.4719856772
H       -0.9637280883   -0.0906583384   -3.5652382904
H       -0.0962265817    1.4162949262   -3.1748883538
24   

C       -1.4370498695   -1.3674278530    2.3135915201
C       -3.6799364763    0.5025459447    3.2273298940
C       -5.0665872739    0.7147059799    1.2621347233
C       -4.7930803697    0.7732114836    4.0322174871
C       -6.1729450292    0.9859042409    2.0754934302
C       -3.7981109251    0.4577746500    1.8240668906
C       -6.0477930413    1.0141377714    3.4665687190
C       -2.7027396075    0.1672812213    0.9032968785
C       -0.5344300696   -0.8381987622    0.1035017784
C       -1.6012822411   -0.6175782986    1.1064087115
C       -0.9013562115    0.9824951651   -2.9645159813
N       -1.2691801439   -1.9827298510    3.2881993240
N       -0.3377568957   -0.3005023953   -1.0828510408
O       -1.1973893056    0.6953259840   -1.5976859172
Cl      -7.4312335255    1.3494855431    4.4780148855
H       -2.7288249049    0.3545979126    3.7228715766
H       -5.2027364108    0.6943091596    0.1867023293
H       -4.6827220600    0.8004727840    5.1101122965
H       -7.1416147353    1.1739990524    1.6273370328
H       -2.9001451732    0.5056850729   -0.1014659935
H        0.2248736344   -1.5604323786    0.3830328869
H       -1.6611157619    1.6539550546   -3.3742036658
H       -0.8919516183    0.0601600553   -3.5540318658
H        0.0776619462    1.4647865700   -3.0420557291
24   

C       -1.5991350313   -1.4130350595    2.2555267599
C       -3.6268551625    0.6896174278    3.1728113518
C       -5.1322617909    0.5678907268    1.2889344638
C       -4.7156454454    0.9246413541    4.0206966300
C       -6.2155477881    0.8044208888    2.1435724238
C       -3.8174139897    0.5104993856    1.7909041406
C       -6.0178714668    0.9845275517    3.5157023250
C       -2.7281872320    0.2210183677    0.8545898188
C       -0.6435334666   -0.9400532301    0.0486616861
C       -1.6954988140   -0.6509689387    1.0481759948
C       -0.7882329484    1.0453821410   -2.9354854524
N       -1.4895810664   -2.0363195174    3.2332356344
N       -0.3925512612   -0.3866123625   -1.1196726040
O       -1.1579375835    0.6991872701   -1.6006919642
Cl      -7.3721612021    1.2766810498    4.5786807446
H       -2.6321799433    0.6612561741    3.6027765854
H       -5.3177565869    0.4207907322    0.2309041150
H       -4.5506785148    1.0609534209    5.0831812020
H       -7.2220871409    0.8447638133    1.7438792149
H       -2.9196162244    0.5711515855   -0.1482332330
H        0.0483627226   -1.7316676326    0.3148025776
H       -1.4819899720    1.7935396370   -3.3290282907
H       -0.8201342675    0.1616278695   -3.5806509611
H        0.2245827231    1.4591393568   -2.9480123135
24   

C       -1.7518903778   -1.4519597753    2.1933338212
C       -3.5937308819    0.8741200549    3.1105010322
C       -5.1726508497    0.4069260850    1.3454396928
C       -4.6544891657    1.0786826027    4.0006074752
C       -6.2292762482    0.6134745852    2.2405873102
C       -3.8387049712    0.5525955059    1.7658020581
C       -5.9805550540    0.9541273740    3.5741053591
C       -2.7520809865    0.2687134559    0.8132435211
C       -0.7571609398   -1.0257605680   -0.0111797256
C       -1.7896336607   -0.6794248021    0.9890873290
C       -0.6707241196    1.1059921713   -2.8953721886
N       -1.6921782008   -2.0864189785    3.1680856269
N       -0.4551401794   -0.4583203517   -1.1602564584
O       -1.1274387148    0.7024063155   -1.6043898841
Cl      -7.3010480687    1.2098800231    4.6877785410
H       -2.5748347037    0.9683272778    3.4697469934
H       -5.3909424922    0.1284956003    0.3206156635
H       -4.4496261777    1.3308643011    5.0345343752
H       -7.2535814783    0.5035585367    1.9041733357
H       -2.9304429518    0.6459117035   -0.1827617601
H       -0.1317640653   -1.8762351269    0.2372133800
H       -1.2939915084    1.9230889709   -3.2692486546
H       -0.7284136009    0.2687175307   -3.5981178242
H        0.3663350771    1.4496759943   -2.8352069605
24   

C       -1.9064547215   -1.5585776190    2.0808453060
C       -3.5779649646    1.0390698934    3.0225237546
C       -5.1808993591    0.2010525089    1.4263857924
C       -4.6077800129    1.2362330968    3.9500050358
C       -6.2077313243    0.3995254130    2.3573965542
C       -3.8562014732    0.5427831302    1.7410110205
C       -5.9319119799    0.9239256245    3.6246642629
C       -2.7725416628    0.2719534532    0.7684737499
C       -0.8528968950   -1.1059749017   -0.0954964849
C       -1.8775702890   -0.7419811384    0.9056471864
C       -0.5605131789    1.1794755209   -2.8450268764
N       -1.9046081962   -2.2349452610    3.0288234039
N       -0.4972873861   -0.5024183227   -1.2101586979
O       -1.0895757242    0.7193039473   -1.6015139663
Cl      -7.2150540861    1.1732673770    4.7825849773
H       -2.5558531425    1.2725833597    3.2994451618
H       -5.4141079902   -0.2211791103    0.4554374076
H       -4.3803654538    1.6287888644    4.9342083278
H       -7.2284537194    0.1405192440    2.1015271968
H       -2.9162736426    0.7251306529   -0.2013491221
H       -0.2861365231   -2.0050607859    0.1201217668
H       -1.1225775616    2.0538208071   -3.1848873529
H       -0.6364363575    0.3945633059   -3.6041582134
H        0.4907043318    1.4583245347   -2.7247650125
24   

C       -2.1254357069   -1.7787414315    1.9040757397
C       -3.6097717647    1.2638004444    2.9019942237
C       -5.1495685352   -0.0083291454    1.5500893830
C       -4.6310385226    1.5135371244    3.8265901384
C       -6.1683166843    0.2432858368    2.4769984785
C       -3.8589542731    0.5002980384    1.7545949253
C       -5.9190986725    1.0069415563    3.6225058059
C       -2.7809228899    0.2383431729    0.7674248840
C       -0.8697145093   -1.1465562092   -0.1158552982
C       -1.9584923745   -0.8398663736    0.8366322714
C       -0.4845339830    1.2011772619   -2.8020510641
N       -2.2379958766   -2.5588348916    2.7613362599
N       -0.4638320666   -0.5048650345   -1.1915557783
O       -1.0908871567    0.6869359356   -1.6165700617
Cl      -7.1914176387    1.3206556890    4.7767142832
H       -2.6165053863    1.6608556989    3.0790603857
H       -5.3598256519   -0.6059865746    0.6702101559
H       -4.4262996062    2.1025343274    4.7129395674
H       -7.1614643852   -0.1577129881    2.3118088095
H       -2.6925989312    0.9817211413   -0.0099483088
H       -0.3055664146   -2.0481225198    0.0962720368
H       -0.9863669760    2.1251764571   -3.1026191017
H       -0.5678607265    0.4728129395   -3.6145550387
H        0.5734454625    1.4155949182   -2.6221526437
24   

C       -2.3063124274   -1.9825934877    1.6969342277
C       -3.6717556990    1.4761748735    2.7343944491
C       -5.0763208709   -0.1945997034    1.7163771697
C       -4.6955004839    1.7836843931    3.6387574174
C       -6.0987419564    0.1147396584    2.6213243855
C       -3.8383306949    0.4617330580    1.7819738871
C       -5.9162886469    1.1028811349    3.5939851227
C       -2.7806753832    0.1955036753    0.7805720432
C       -0.8901399324   -1.1814816279   -0.1501976911
C       -2.0252426290   -0.9344989748    0.7637023620
C       -0.4536921293    1.2974081132   -2.7065793715
N       -2.5170799456   -2.8521916410    2.4422377232
N       -0.4522231770   -0.4806242809   -1.1750469933
O       -1.1127335945    0.6970014391   -1.5916077895
Cl      -7.1909640966    1.4861298272    4.7243308626
H       -2.7365063916    2.0225693614    2.7816072829
H       -5.2405971080   -0.9579872985    0.9639046876
H       -4.5464898691    2.5572013676    4.3830353251
H       -7.0433785634   -0.4140362906    2.5709427767
H       -2.4321768861    1.0721402931    0.2547337367
H       -0.3299633210   -2.0915038935    0.0344536807
H       -0.9050219973    2.2697444870   -2.9228687599
H       -0.5509423133    0.6571382478   -3.5885389639
H        0.6087545144    1.4428807332   -2.4870857883
24   

C       -2.4040598330   -2.0905854876    1.5690701713
C       -3.7329977264    1.6025716845    2.5981900670
C       -4.9901181546   -0.3179667533    1.8742243134
C       -4.7551943487    1.9314182094    3.4966949145
C       -6.0107874220    0.0125296438    2.7735572530
C       -3.8186970429    0.4536530014    1.7981605649
C       -5.9006004326    1.1364964616    3.5973315185
C       -2.7702458919    0.1739658063    0.8026811958
C       -0.9662606659   -1.2431528651   -0.2355170972
C       -2.0825399778   -0.9979280298    0.7024905639
C       -0.3866821714    1.3836335622   -2.6097755312
N       -2.6545759298   -2.9976027318    2.2551706692
N       -0.4946399786   -0.5007033217   -1.2152864112
O       -1.0914595343    0.7353598459   -1.5509496946
Cl      -7.1731990679    1.5466615012    4.7205346140
H       -2.8596602349    2.2416818849    2.5326987602
H       -5.1095471102   -1.1859579982    1.2351587162
H       -4.6640963934    2.8115972854    4.1223915399
H       -6.8989150950   -0.6057362684    2.8329390025
H       -2.3566168069    1.0568516848    0.3384443247
H       -0.4541780637   -2.1915737375   -0.1157116635
H       -0.7796702079    2.3943713183   -2.7507930327
H       -0.5100705881    0.8218868698   -3.5405848037
H        0.6798099413    1.4502095835   -2.3723446172
24   

C       -2.4674504222   -2.1954158797    1.4683329611
C       -3.8028997987    1.6722980143    2.4542652202
C       -4.9153170383   -0.4207628781    2.0429124787
C       -4.8094842583    2.0285665170    3.3595853265
C       -5.9198480832   -0.0618973371    2.9496685002
C       -3.8191535004    0.4288226513    1.8019796723
C       -5.8739380883    1.1625569409    3.6207866039
C       -2.7753754639    0.1255000407    0.8199558773
C       -1.0705514561   -1.3174801643   -0.3452196172
C       -2.1478895431   -1.0738024070    0.6391497175
C       -0.3382558077    1.4421317335   -2.5168290108
N       -2.7180196740   -3.1270494460    2.1207366018
N       -0.5806533348   -0.5442233129   -1.2919589440
O       -1.1077117056    0.7433201701   -1.5381569118
Cl      -7.1273939585    1.6073711027    4.7522893836
H       -2.9935135451    2.3694375589    2.2688562124
H       -5.0068950729   -1.3671525788    1.5225728354
H       -4.7687177459    2.9859246881    3.8658973882
H       -6.7475300970   -0.7374337626    3.1319733981
H       -2.3362519970    1.0043680259    0.3731549858
H       -0.6050007963   -2.2957186835   -0.2951831516
H       -0.6819276400    2.4779513110   -2.5867020275
H       -0.4523121555    0.9636083215   -3.4941426571
H        0.7209915805    1.4404091854   -2.2406456965
24   

C       -2.2733662782   -2.2025438265    1.9976963788
C       -3.9751265503    1.6758227379    2.9373682757
C       -4.7587528948   -0.4140081401    2.0437311949
C       -5.2721268104    1.9787932968    3.3673292808
C       -6.0545338816   -0.1074421250    2.4770083809
C       -3.6820258164    0.4639956177    2.2867020419
C       -6.3232988098    1.0877279645    3.1465559818
C       -2.3100903529    0.2317137599    1.8448447027
C       -0.2624557961   -1.0790282603    1.1797549101
C       -1.6589286615   -0.9563694792    1.6571434247
C        1.3756141407    2.0112717222    0.3903625423
N       -2.7484737268   -3.2341062010    2.2561548564
N        0.5913889179   -0.1690785138    0.7575966166
O        0.2365209862    1.1950063522    0.6634022235
Cl      -7.9409372064    1.4658741466    3.6846558856
H       -3.1855954542    2.3944253824    3.1264781478
H       -4.6279527834   -1.3376238215    1.4949519891
H       -5.4689821500    2.9142075244    3.8780478252
H       -6.8641901124   -0.8020090580    2.2851887879
H       -1.7247146645    1.1367214181    1.8119098306
H        0.1377036184   -2.0870049002    1.1664372933
H        1.0986003221    3.0670590904    0.4575105407
H        1.7503330697    1.8058985251   -0.6168541237
H        2.1712748054    1.8094511184    1.1146121744
24   

C       -2.2782470365   -2.2651927272    1.8152371681
C       -3.9961506676    1.7217359790    2.7601751287
C       -4.7500853089   -0.5027056508    2.2505015989
C       -5.2772662792    2.0542219067    3.2139080811
C       -6.0301121382   -0.1642025166    2.7075639742
C       -3.6928792103    0.4336197520    2.2785337927
C       -6.3060763568    1.1132684579    3.1958312946
C       -2.3293197772    0.1864521292    1.8271843570
C       -0.2975237124   -1.0806369193    1.0395924227
C       -1.6857161834   -0.9904576275    1.5528313242
C        1.4136244189    2.0354501300    0.5651789080
N       -2.7204047041   -3.3251762730    2.0102055115
N        0.5684307486   -0.1497929579    0.6924470168
O        0.2520338554    1.2256114212    0.7470281021
Cl      -7.9050727268    1.5279492667    3.7619994591
H       -3.2268161102    2.4849486281    2.7944502492
H       -4.6440548618   -1.5015433522    1.8547571594
H       -5.4786292388    3.0523358877    3.5851873025
H       -6.8237639982   -0.9017854752    2.6762844453
H       -1.7504789318    1.0933484395    1.7792779563
H        0.0892597538   -2.0874532273    0.9246235827
H        1.1607195111    3.0866404288    0.7295383606
H        1.7966594476    1.9175519659   -0.4528942371
H        2.1943829521    1.7459961550    1.2757312756
24   

C       -2.3531075162   -2.2647335706    1.4858521572
C       -4.0373094399    1.7617564660    2.5824471209
C       -4.7032566264   -0.5445049875    2.4588031237
C       -5.3148299983    2.1102322895    3.0331908066
C       -5.9805343104   -0.1874772036    2.9107331633
C       -3.6934809692    0.4284330712    2.2824798444
C       -6.2995221852    1.1386859814    3.2019287187
C       -2.3348400776    0.1771583629    1.8211768063
C       -0.3013077411   -1.0635512680    1.0022404046
C       -1.7116454066   -0.9874404719    1.4588991893
C        1.5224259043    2.0303929231    0.8201363362
N       -2.8188353959   -3.3327162313    1.4860265069
N        0.6189149885   -0.1357265364    0.8273659944
O        0.3667874025    1.2318323205    1.0732181889
Cl      -7.8947674640    1.5722319321    3.7645485502
H       -3.3050315858    2.5529699157    2.4669006065
H       -4.5754186201   -1.5965051088    2.2663380801
H       -5.5477909071    3.1451325538    3.2553621819
H       -6.7376020141   -0.9528107329    3.0376425403
H       -1.7596484639    1.0851745071    1.7755304557
H        0.0535903704   -2.0602180771    0.7627192280
H        1.2987469322    3.0801712762    1.0297289268
H        1.8242082305    1.9352482169   -0.2274409897
H        2.3499508893    1.7104340459    1.4608110184
24   

C       -2.4824318183   -2.1770120946    1.1737171009
C       -4.1145120147    1.7727754906    2.3875966280
C       -4.6148144859   -0.5605952122    2.6728124839
C       -5.3951954917    2.1051081992    2.8426734994
C       -5.8960279657   -0.2215621795    3.1261275625
C       -3.6926259620    0.4337010917    2.2776639051
C       -6.3001581355    1.1109807633    3.2127173866
C       -2.3392001839    0.1908555698    1.7946307267
C       -0.3269547649   -1.0677018263    0.9458634486
C       -1.7482016734   -0.9634153387    1.3553504108
C        1.5909215387    1.9578492407    1.1246262845
N       -3.0384641819   -3.1878689483    1.0122429349
N        0.6528323182   -0.1863935317    0.9572314746
O        0.4713233032    1.1292442971    1.4378714232
Cl      -7.8985451794    1.5254539572    3.7807558204
H       -3.4449636697    2.5788366176    2.1091852243
H       -4.3805183632   -1.6144634794    2.6784926718
H       -5.6934776219    3.1448635746    2.9102218788
H       -6.5851750439   -1.0040213546    3.4223097983
H       -1.7675646015    1.1008327687    1.7234544750
H       -0.0243049213   -2.0375574701    0.5660209510
H        1.3724277447    2.9936409858    1.3991616180
H        1.8072127095    1.9160565522    0.0523699263
H        2.4721229221    1.6219583263    1.6793719978
24   

C       -2.5851633551   -2.0890483119    1.0446087837
C       -4.2092355662    1.7544030004    2.2265759262
C       -4.5040965444   -0.5452241232    2.8624679702
C       -5.4922901167    2.0505569298    2.7008476500
C       -5.7877706811   -0.2447408217    3.3343404016
C       -3.6928330396    0.4471586397    2.2741271506
C       -6.2962754601    1.0529110339    3.2539986095
C       -2.3362554356    0.2226941760    1.7834328810
C       -0.3847233357   -1.0485566834    0.8207128567
C       -1.7901876614   -0.9211735942    1.2695007613
C        1.6517197992    1.8665401787    1.2812220407
N       -3.2022744721   -3.0590747539    0.8578687356
N        0.6266520489   -0.2076488601    0.8931199150
O        0.4974074435    1.0575493167    1.5080629560
Cl      -7.8975731573    1.4229351179    3.8441130533
H       -3.6148196386    2.5570985111    1.8048432887
H       -4.1562845694   -1.5617429285    2.9930657273
H       -5.8716254601    3.0640044669    2.6407228060
H       -6.3952589640   -1.0264625280    3.7755074962
H       -1.7675644171    1.1348667622    1.6972050284
H       -0.1291678311   -1.9936907537    0.3540925557
H        1.4715124632    2.8798856927    1.6507981867
H        1.8770959471    1.9170470885    0.2111788045
H        2.5134733065    1.4448296453    1.8071759699
24   

C       -2.6698376775   -1.9958175138    0.9641823825
C       -4.2958690122    1.7215018447    2.0808161356
C       -4.3911863389   -0.4900534415    3.0226822231
C       -5.5808267906    1.9845234613    2.5701828205
C       -5.6765063571   -0.2242304757    3.5098468662
C       -3.6882884040    0.4696779680    2.2700833705
C       -6.2858996760    1.0123743348    3.2836434842
C       -2.3200100562    0.2621683884    1.7899872250
C       -0.4412417923   -1.0100361087    0.6954833822
C       -1.8252607721   -0.8645447917    1.1978699391
C        1.7263648864    1.7660706080    1.3752797213
N       -3.3322250323   -2.9347069696    0.7742124664
N        0.5987061774   -0.2085602091    0.7974828384
O        0.5243353155    1.0080218574    1.5120154840
Cl      -7.8896801128    1.3411420632    3.8911878980
H       -3.7727179765    2.4994551082    1.5362175540
H       -3.9453209940   -1.4520754533    3.2474209831
H       -6.0387791466    2.9515315278    2.3977873119
H       -6.2063248396   -0.9827811825    4.0742404241
H       -1.7477576481    1.1739634366    1.7124395707
H       -0.2332493988   -1.9300185146    0.1601676231
H        1.5916772186    2.7560917076    1.8198393684
H        1.9821554215    1.8867322362    0.3177841423
H        2.5498683008    1.2570889330    1.8851000441
24   

C       -2.7297969326   -1.8867780721    0.8732230624
C       -4.3885228107    1.6604319783    1.9415803027
C       -4.2807531528   -0.4013307579    3.1789364435
C       -5.6734156680    1.8945702647    2.4461063799
C       -5.5657330219   -0.1653196124    3.6818460791
C       -3.6862883266    0.4921697844    2.2723346694
C       -6.2764937893    0.9813831240    3.3158169396
C       -2.3051512318    0.3077274377    1.7967008725
C       -0.4901255797   -0.9235332905    0.5594633894
C       -1.8518796346   -0.7833601709    1.1180459170
C        1.7860827001    1.6999694955    1.4585528919
N       -3.4216444162   -2.8015738143    0.6715635157
N        0.5703898846   -0.1542366537    0.6901623396
O        0.5421649221    1.0009162634    1.5035048925
Cl      -7.8801822162    1.2738434976    3.9418917968
H       -3.9396296949    2.3897994521    1.2767559606
H       -3.7454533756   -1.2906336811    3.4930596222
H       -6.2106499366    2.7926713761    2.1644959433
H       -6.0168817839   -0.8756368637    4.3648276231
H       -1.7306392947    1.2207949311    1.7483275905
H       -0.3215835131   -1.8069770976   -0.0465107146
H        1.6935881938    2.6532309727    1.9864268800
H        2.0738314385    1.8980109341    0.4211706441
H        2.5683814053    1.1035656202    1.9376440619
24   

C       -2.8007516859   -1.7605430109    0.7368117926
C       -4.4771097855    1.5474803551    1.8092115404
C       -4.1805235947   -0.2847690089    3.3438705214
C       -5.7661816350    1.7590957207    2.3131945994
C       -5.4695553921   -0.0712255506    3.8466367417
C       -3.6799458227    0.5031366708    2.2969097657
C       -6.2762090119    0.9490819046    3.3327778305
C       -2.2906528192    0.3347038069    1.8132430725
C       -0.5331915459   -0.8457502461    0.4519000307
C       -1.8815513458   -0.7065345451    1.0410199660
C        1.8450863047    1.6040862078    1.5528932571
N       -3.5273042854   -2.6331741693    0.4784780117
N        0.5530372554   -0.1231377282    0.6285454787
O        0.5696561501    0.9631370665    1.5321121226
Cl      -7.8850427496    1.2130128868    3.9583635433
H       -4.0986149009    2.1929959274    1.0246616957
H       -3.5673506112   -1.0755299217    3.7618143412
H       -6.3795917129    2.5581634383    1.9135681780
H       -5.8502376167   -0.7002746514    4.6427884626
H       -1.6935343052    1.2340956878    1.8462952010
H       -0.4017081389   -1.6836202255   -0.2239088065
H        1.7920102469    2.5130756886    2.1585656929
H        2.1512726181    1.8744244363    0.5373708983
H        2.5944108716    0.9335927944    1.9844245809
24   

C       -2.8983910998   -1.5265932513    0.4991226592
C       -4.5765784516    1.3523062722    1.6566587434
C       -4.0787118184   -0.1187921083    3.5019260073
C       -5.8830010031    1.5075973863    2.1355823333
C       -5.3860503453    0.0386792377    3.9777312020
C       -3.6613991638    0.5378197939    2.3353332071
C       -6.2994047368    0.8536988880    3.3002347151
C       -2.2727705683    0.3747913830    1.8349642537
C       -0.5455175782   -0.8084477495    0.4324797382
C       -1.9098598969   -0.6016636496    0.9640328724
C        1.9172203621    1.5270361555    1.5970661337
N       -3.6811728250   -2.2930060973    0.1041833145
N        0.5710460059   -0.1460656180    0.6519708114
O        0.6060066600    0.9684492291    1.5184881989
Cl      -7.9290791063    1.0498664719    3.8961269056
H       -4.2729829597    1.8633038201    0.7498518156
H       -3.3858110336   -0.7580646189    4.0374661167
H       -6.5840338802    2.1375933327    1.6006915259
H       -5.6999603452   -0.4761515379    4.8781975249
H       -1.5686880687    1.0980589063    2.2169089066
H       -0.4341521527   -1.6410668848   -0.2533972517
H        1.9124637905    2.3869561427    2.2726893876
H        2.2466321461    1.8568489070    0.6069360369
H        2.6223972942    0.7817973873    1.9778267729
24   

C       -2.9617242943   -1.2820611886    0.2518505896
C       -4.6671477039    1.1338428009    1.5434661554
C       -3.9880707729    0.0947509093    3.6117530476
C       -5.9770467419    1.2348943612    2.0267907495
C       -5.2996702606    0.1975079344    4.0909938097
C       -3.6519687322    0.5852748686    2.3401144060
C       -6.3043062654    0.7732345019    3.3060176950
C       -2.2745298067    0.4163310155    1.8226651801
C       -0.5624650452   -0.7619182744    0.4047592341
C       -1.9398718424   -0.4912049836    0.8676235329
C        1.9235935107    1.4811337754    1.6919006452
N       -3.7735514036   -1.9347665732   -0.2687792068
N        0.5676236461   -0.1470454799    0.6840985762
O        0.5932266866    0.9934848804    1.5177947350
Cl      -7.9385631613    0.9027632017    3.9075462235
H       -4.4371115955    1.4832559220    0.5430077183
H       -3.2279774573   -0.3690928789    4.2302272362
H       -6.7505355937    1.6688945862    1.4040293584
H       -5.5467607926   -0.1765789496    5.0776222661
H       -1.5030887198    0.8321818235    2.4539467178
H       -0.4555657475   -1.5887551019   -0.2887696849
H        1.9295530667    2.2803144769    2.4383404179
H        2.3044793889    1.8768114726    0.7455176020
H        2.5821474064    0.6757925057    2.0322973238
24   

C       -2.9913810864   -1.1586973721    0.0725229056
C       -4.7464150765    0.9702642292    1.4980092797
C       -3.9207629511    0.2964010866    3.6637401211
C       -6.0380594223    1.0758145265    2.0270538461
C       -5.2149282806    0.4044714535    4.1870412400
C       -3.6664225934    0.5959790239    2.3136018339
C       -6.2838754801    0.7979063300    3.3754529136
C       -2.3050202075    0.4131539902    1.7825601359
C       -0.5940808518   -0.6712498776    0.2888028578
C       -1.9741429113   -0.4198921491    0.7565050256
C        1.9152450260    1.3973881339    1.8036991599
N       -3.8007018148   -1.7625866151   -0.5076167405
N        0.5415174869   -0.0973995934    0.6275239326
O        0.5760620995    0.9736796863    1.5484870445
Cl      -7.8967571878    0.9304710909    4.0315198221
H       -4.5853398877    1.1829683033    0.4468707441
H       -3.1115264529   -0.0254910058    4.3094629996
H       -6.8607835755    1.3703159968    1.3859911530
H       -5.3981582613    0.1760278874    5.2304491289
H       -1.5242477009    0.7475871059    2.4493856366
H       -0.4890828879   -1.4429017757   -0.4659511803
H        1.9222977754    2.1334229326    2.6124658434
H        2.3414198103    1.8535326872    0.9050732282
H        2.5345261025    0.5441839345    2.0982080373
24   

C       -2.9770078477   -1.1003988699   -0.0854592328
C       -4.8122865346    0.7848959683    1.4792181541
C       -3.8572551228    0.4598170298    3.6730562081
C       -6.0806843873    0.9158688968    2.0567957903
C       -5.1291051270    0.5930525047    4.2427307544
C       -3.6781661000    0.5576892843    2.2793291669
C       -6.2513770731    0.8217264018    3.4411490977
C       -2.3295670035    0.3707284678    1.7380345428
C       -0.5976771996   -0.5712987897    0.1708037207
C       -1.9841849656   -0.3786066222    0.6501094653
C        1.8973578807    1.3232076139    1.9184097211
N       -3.7658207468   -1.6876147477   -0.7094415271
N        0.5316992905   -0.0182471915    0.5619057784
O        0.5583881634    0.9665896070    1.5746029559
Cl      -7.8364481365    0.9845983291    4.1555730295
H       -4.7214400590    0.8750065485    0.4027973687
H       -3.0072028885    0.2716763462    4.3191925688
H       -6.9439762857    1.0911411475    1.4253878429
H       -5.2526365251    0.5142258548    5.3165215325
H       -1.5479825527    0.6771304953    2.4163650628
H       -0.4794237671   -1.2764657073   -0.6446465972
H        1.8920650084    1.9806660028    2.7922736709
H        2.3714351711    1.8470597401    1.0829635558
H        2.4810259999    0.4278307728    2.1548716921
24   

C       -2.9449408350   -1.0331588932   -0.2517151223
C       -4.8735733799    0.5957931298    1.4801077604
C       -3.7998424452    0.6202071600    3.6427355037
C       -6.1162138344    0.7589148212    2.1041530771
C       -5.0468107586    0.7847392320    4.2568402948
C       -3.6901476515    0.5129796329    2.2400943754
C       -6.2157132586    0.8519729145    3.4947681711
C       -2.3529707718    0.3251781605    1.6844087405
C       -0.5895821529   -0.4549116289    0.0608404926
C       -1.9843552283   -0.3311422658    0.5425998709
C        1.8802076160    1.2422482224    2.0311863601
N       -3.7035760113   -1.6059812466   -0.9247563950
N        0.5306882346    0.0743591328    0.5082027362
O        0.5458476365    0.9566399238    1.6113764055
Cl      -7.7698861233    1.0537781647    4.2649678556
H       -4.8581507210    0.5605603448    0.3981763741
H       -2.9147757249    0.5652114501    4.2665488018
H       -7.0158801499    0.8176481253    1.5025465530
H       -5.1136485168    0.8583209265    5.3360366101
H       -1.5724625542    0.6215937882    2.3669352396
H       -0.4532317690   -1.0826773893   -0.8130138330
H        1.8602116702    1.8130710236    2.9637641393
H        2.3954346155    1.8304443021    1.2659094532
H        2.4338169909    0.3129320602    2.1991579736
24   

C       -2.9245093523   -0.9226937649   -0.4107196289
C       -4.9311168298    0.3851080362    1.5176711199
C       -3.7690450264    0.7738806212    3.5951830499
C       -6.1519238276    0.5749414010    2.1768505754
C       -4.9945814387    0.9637749926    4.2435002748
C       -3.7078099340    0.4632814722    2.2183410361
C       -6.1969250815    0.8611095945    3.5425145259
C       -2.3785682327    0.2853814995    1.6476461740
C       -0.5906080813   -0.3393183268   -0.0166856378
C       -1.9932225468   -0.2726569041    0.4582696633
C        1.8705496635    1.1283959903    2.1417816028
N       -3.6482214408   -1.4592609719   -1.1491895038
N        0.5255947016    0.1450499858    0.4893672646
O        0.5383802411    0.9072040001    1.6785419838
Cl      -7.7249406591    1.0949614004    4.3548304314
H       -4.9871867535    0.2043993686    0.4541070627
H       -2.8598849592    0.8604862044    4.1795256317
H       -7.0789631167    0.5049963741    1.6195270705
H       -5.0175194223    1.1920369193    5.3027217714
H       -1.5997073140    0.5790213145    2.3313462000
H       -0.4410413173   -0.8782094309   -0.9460210321
H        1.8453658913    1.6131679964    3.1217496732
H        2.4085627052    1.7732969117    1.4405430260
H        2.4045644422    0.1772260679    2.2331879087
24   

C       -2.9225421192   -0.6403591663   -0.5814978294
C       -4.9507884617    0.1259394492    1.6127475619
C       -3.7594659596    0.9528811709    3.5348599623
C       -6.1598532578    0.3241800342    2.2912327658
C       -4.9729374477    1.1472143185    4.2037543348
C       -3.7113908060    0.4357510970    2.2202635520
C       -6.1845005405    0.8346829200    3.5889719431
C       -2.3866524486    0.2816717306    1.6344289465
C       -0.5832636666   -0.2680834804   -0.0392200627
C       -1.9963171791   -0.1813317332    0.4059734288
C        1.9221692079    0.8717543496    2.2748415775
N       -3.6274672585   -1.0267291628   -1.4248257425
N        0.5473854512    0.0612090803    0.5535440970
O        0.5830993584    0.6177302502    1.8510138479
Cl      -7.6984785781    1.0773796271    4.4246158709
H       -5.0484381447   -0.2715584133    0.6155931621
H       -2.8449212909    1.2118558345    4.0565143739
H       -7.0952969107    0.0778151175    1.8020875705
H       -4.9784040724    1.5451013380    5.2118466066
H       -1.6128979356    0.5903868528    2.3151609307
H       -0.4367194126   -0.6737073794   -1.0345013592
H        1.9165990740    1.2860412300    3.2869433654
H        2.4007726901    1.5893425056    1.6014031638
H        2.5003806838   -0.0573937678    2.2763654436
