30   

C       -1.4854496553    0.9634569792    0.9076648683
C       -1.2341565813   -0.2557729972    1.5397196558
C       -0.5037058249    1.5386456532    0.0991574444
C        5.5528355595    1.2263096185   -1.2597804477
C       -0.0016993567   -0.8969106170    1.3688503563
C        0.7285132644    0.8985446027   -0.0723264033
C        5.1995652662    0.0113284707   -1.8384494586
C        4.8896724391    1.6546003533   -0.1147636139
C        1.0067420072   -0.3261700446    0.5726806518
C        3.4642495892   -0.3164043582   -0.1651246874
C        4.1827639733   -0.7788849867   -1.2957703093
C        3.8575028277    0.8967287008    0.4419743576
C        2.2913810884   -1.0575555883    0.3842140039
C        3.8259363561   -3.1611583617   -1.1471085801
C        3.5598033548   -3.1145705945    0.3600485022
N        2.3393170983   -2.3409428329    0.6754395216
N        3.9382353905   -2.0142883803   -1.8967849957
O        3.9824479140   -4.2220751253   -1.7310546680
F        3.2554269820    1.3460256100    1.5678909526
H       -2.4412433833    1.4580466986    1.0395461504
H       -1.9960911402   -0.7101709409    2.1628123026
H       -0.6985470620    2.4799548419   -0.4020480489
H        6.3487013377    1.8259583021   -1.6892912608
H        0.1592921048   -1.8455300373    1.8701540553
H        1.4601590208    1.3604467412   -0.7250841904
H        5.7387435419   -0.3302956780   -2.7145527076
H        5.1701040195    2.5883986562    0.3580413179
H        3.4378081409   -4.1412079607    0.7163536096
H        4.4288073716   -2.6890522475    0.8697743330
H        4.2578053833   -2.1997577145   -2.8387604821
30   

C       -1.4479567079    1.0163146152    0.9392904954
C       -1.1304369959   -0.1085336756    1.7044524455
C       -0.5603878255    1.4587881526   -0.0441766722
C        5.5529696254    1.2402755864   -1.1688076464
C        0.0729570879   -0.7897681393    1.4875012855
C        0.6425579048    0.7778032655   -0.2605654728
C        5.2415842806    0.0296099713   -1.7791363204
C        4.8295066591    1.6471573878   -0.0532962988
C        0.9777853201   -0.3570938044    0.5053286860
C        3.4370081711   -0.3438618499   -0.1901524682
C        4.2097049150   -0.7797012479   -1.2961179633
C        3.7816769547    0.8705277333    0.4450477837
C        2.2481215831   -1.1034158293    0.2910800637
C        3.8355683333   -3.1682462704   -1.2352281261
C        3.4986721488   -3.1685023431    0.2576073709
N        2.2729852432   -2.3937338903    0.5478947979
N        3.9980393840   -1.9997425171   -1.9402434972
O        4.0098046969   -4.2111107106   -1.8459847124
F        3.1218681182    1.3034412194    1.5447165009
H       -2.3811000832    1.5423251291    1.1068893522
H       -1.8174070306   -0.4568560348    2.4673167109
H       -0.8048847183    2.3290111314   -0.6426238261
H        6.3606993352    1.8548959064   -1.5525383338
H        0.2991933204   -1.6620182337    2.0918488877
H        1.3134055148    1.1322467400   -1.0353744969
H        5.8234835106   -0.2919055174   -2.6352814257
H        5.0738281045    2.5793752588    0.4421041705
H        3.3520323666   -4.2052822120    0.5729378935
H        4.3474182798   -2.7696568635    0.8202498858
H        4.3615300494   -2.1589749652   -2.8710543329
30   

C       -1.4080196620    1.0523478396    0.9474831033
C       -0.9993840155    0.0430000196    1.8235619958
C       -0.6373294079    1.3465880560   -0.1803385423
C        5.5647432537    1.2492397781   -1.0697714378
C        0.1766908086   -0.6726767159    1.5705439685
C        0.5382038622    0.6303893706   -0.4314263865
C        5.2886596790    0.0489616975   -1.7159580859
C        4.7894244494    1.6307209348    0.0191627361
C        0.9550072189   -0.3946449240    0.4381513116
C        3.4220056168   -0.3697718904   -0.2112912901
C        4.2425910904   -0.7763596749   -1.2943038270
C        3.7269024501    0.8380620742    0.4574801877
C        2.2192823203   -1.1462883211    0.2003763477
C        3.8577870322   -3.1673722604   -1.3252331482
C        3.4581688026   -3.2159916725    0.1506817304
N        2.2274610760   -2.4423651073    0.4212999456
N        4.0611384679   -1.9776572137   -1.9819778682
O        4.0499602119   -4.1901887170   -1.9638165673
F        3.0181546029    1.2502442790    1.5343560595
H       -2.3195858072    1.6058049551    1.1430524335
H       -1.5931742177   -0.1870676226    2.7008615094
H       -0.9498528406    2.1302200736   -0.8611098564
H        6.3834915625    1.8767094019   -1.4064249747
H        0.4846193965   -1.4526878554    2.2589334157
H        1.1292071099    0.8694831165   -1.3088874490
H        5.9080328992   -0.2505286792   -2.5535837264
H        5.0035651267    2.5560939165    0.5406421325
H        3.2922281362   -4.2619416654    0.4233150005
H        4.2859739683   -2.8440970888    0.7609335934
H        4.4643681347   -2.1090526617   -2.9007114855
30   

C       -1.3746514921    1.0758045577    0.9324058531
C       -0.8515928071    0.2233016795    1.9089081805
C       -0.7361988549    1.1874669584   -0.3057866881
C        5.5859744081    1.2530610269   -0.9538267790
C        0.3055413916   -0.5188820414    1.6451010390
C        0.4204532307    0.4442042791   -0.5661711230
C        5.3296190082    0.0716231877   -1.6408520694
C        4.7787830865    1.6039731603    0.1217445832
C        0.9461565219   -0.4278208822    0.4029578978
C        3.4219240389   -0.3918800853   -0.2007514707
C        4.2726854932   -0.7654884515   -1.2729909481
C        3.7050633499    0.7992552705    0.5078701469
C        2.2093964419   -1.1829946519    0.1494472314
C        3.8785600659   -3.1541959038   -1.4019698030
C        3.4354037406   -3.2565767964    0.0583517556
N        2.2028350677   -2.4848504830    0.3249489988
N        4.1090553019   -1.9421829719   -2.0066541311
O        4.0822826814   -4.1531107253   -2.0738963645
F        2.9680321001    1.1848786170    1.5751665204
H       -2.2711414361    1.6505603414    1.1360416625
H       -1.3408634065    0.1370211207    2.8723941781
H       -1.1355493188    1.8513913358   -1.0640358524
H        6.4129768912    1.8902803429   -1.2494474537
H        0.7086348952   -1.1750341743    2.4091235806
H        0.9148667365    0.5426024022   -1.5265200592
H        5.9721421955   -0.2029846508   -2.4695048574
H        4.9760173692    2.5153388589    0.6736341863
H        3.2548049151   -4.3110159580    0.2851798448
H        4.2477477778   -2.9151177263    0.7059851100
H        4.5385339943   -2.0421880169   -2.9174258301
30   

C       -1.3916776351    1.0869786695    0.8892939589
C       -0.7309605377    0.4670978011    1.9534269512
C       -0.8886675794    0.9585193618   -0.4079758857
C        5.6274700392    1.2245429244   -0.8277635350
C        0.4282221942   -0.2815938622    1.7183203077
C        0.2705476094    0.2090763740   -0.6375329623
C        5.3444619017    0.0817796916   -1.5668217894
C        4.8311093223    1.5415939874    0.2657063779
C        0.9367403781   -0.4283160278    0.4227237435
C        3.4308166150   -0.4093865093   -0.1413538925
C        4.2715069825   -0.7493705730   -1.2335838191
C        3.7417598900    0.7426649443    0.6189770235
C        2.2006859716   -1.1926485338    0.1667090963
C        3.8312837889   -3.1212431889   -1.4766308822
C        3.3800950938   -3.2848888387   -0.0245681706
N        2.1621536679   -2.5007879369    0.2705528234
N        4.0823493018   -1.8858077084   -2.0227715874
O        4.0180396159   -4.0901704122   -2.1957426477
F        3.0205465010    1.0968929884    1.7064061609
H       -2.2901848655    1.6662964710    1.0698187267
H       -1.1153221521    0.5659183190    2.9622006477
H       -1.3955291939    1.4397112070   -1.2367089414
H        6.4661277209    1.8579844232   -1.0975001556
H        0.9371390613   -0.7580791724    2.5491850411
H        0.6582332459    0.1178484184   -1.6463834194
H        5.9781052123   -0.1669355742   -2.4103401677
H        5.0489251274    2.4225997131    0.8576811409
H        3.1761411203   -4.3449151920    0.1505229780
H        4.1958545533   -2.9913652468    0.6419641118
H        4.5098129506   -1.9500423090   -2.9377094851
30   

C       -1.2749172344    0.7195763175    0.6763968964
C       -0.4807090938    0.4407226769    1.7910274671
C       -0.8366928275    0.3437832439   -0.5949560962
C        5.8629401802    1.3333159355   -0.7000652524
C        0.7486887373   -0.2099599020    1.6321441983
C        0.3933071959   -0.3055743093   -0.7464269279
C        5.5994203171    0.2441961228   -1.5210353791
C        5.0835581405    1.5337791286    0.4315784168
C        1.2052906993   -0.5911517019    0.3652192855
C        3.7296417080   -0.4215961943   -0.1028574088
C        4.5609081572   -0.6454843598   -1.2335428278
C        4.0275495623    0.6743619780    0.7422025430
C        2.5272318271   -1.2719643713    0.1447278193
C        4.2256310516   -3.0085348160   -1.6420399151
C        3.7892460662   -3.2941870806   -0.2044859414
N        2.5376968395   -2.5846372567    0.1340294576
N        4.3994504306   -1.7260516396   -2.1034190074
O        4.4562692488   -3.9142213084   -2.4277867033
F        3.3335549240    0.9184130875    1.8739183604
H       -2.2284631710    1.2210982143    0.7978634267
H       -0.8185074292    0.7235451957    2.7815121324
H       -1.4493084059    0.5528378123   -1.4646074033
H        6.6746662690    2.0138583573   -0.9352457185
H        1.3423306773   -0.4372393110    2.5104426904
H        0.7251298426   -0.5954739515   -1.7376562628
H        6.2221665414    0.0834203415   -2.3935178584
H        5.2893009803    2.3702918379    1.0888251716
H        3.6313795253   -4.3715891621   -0.1036276750
H        4.5920046033   -3.0105021414    0.4818088225
H        4.8163815475   -1.7047163493   -3.0251828560
30   

C       -1.3051611618    0.6953301425    0.5625808505
C       -0.4303057619    0.7247488806    1.6494539032
C       -0.9341119461    0.0198659034   -0.5996823246
C        5.9230808648    1.3024173703   -0.5798964303
C        0.8148485308    0.0883425282    1.5708807315
C        0.3112416377   -0.6123689763   -0.6717403928
C        5.5590142024    0.3103058098   -1.4807244734
C        5.2456551898    1.4014518919    0.6281012337
C        1.2153879045   -0.5823349093    0.4074991836
C        3.7654880521   -0.4308156642    0.0001048458
C        4.5119770268   -0.5713173094   -1.2010169912
C        4.1846279346    0.5459016919    0.9340782540
C        2.5418808964   -1.2651962186    0.2249849833
C        4.1328260869   -2.8918800557   -1.7479468461
C        3.7603263124   -3.2714686310   -0.3124298106
N        2.5287145331   -2.5739395125    0.1134391657
N        4.2694073289   -1.5797054254   -2.1362035953
O        4.3268437638   -3.7442780504   -2.6004005491
F        3.6198626233    0.6665324862    2.1514674272
H       -2.2706352022    1.1848093491    0.6244528895
H       -0.7210832788    1.2309859581    2.5629284395
H       -1.6100844942   -0.0179147566   -1.4464255519
H        6.7400597256    1.9787287437   -0.8090457442
H        1.4303381686    0.0886771557    2.4587707314
H        0.5872101166   -1.1362423285   -1.5809639397
H        6.1125149712    0.2151434303   -2.4077988923
H        5.5406998450    2.1511299394    1.3526514516
H        3.5958450583   -4.3519328698   -0.2748284061
H        4.5930166031   -3.0368092961    0.3566223295
H        4.6342081637   -1.4980922516   -3.0764902757
30   

C       -1.3625089094    0.6233422834    0.5240597713
C       -0.3881175752    0.9395206518    1.4703368056
C       -1.0663488286   -0.2914055008   -0.4843306112
C        5.9468423083    1.3164322761   -0.4267223750
C        0.8805870571    0.3491092431    1.4055235977
C        0.2015117569   -0.8777169577   -0.5442844785
C        5.5133829660    0.4476388230   -1.4217473190
C        5.3468353763    1.2665825091    0.8267374927
C        1.2103537855   -0.5631871582    0.3913634498
C        3.7753018618   -0.4187882330    0.0482782042
C        4.4619223627   -0.4423222239   -1.1911358276
C        4.2842844605    0.3958271072    1.0824581901
C        2.5378759208   -1.2458880739    0.2399356253
C        4.0633446664   -2.7106972735   -1.8922528263
C        3.7487706763   -3.1995614283   -0.4722570349
N        2.5262810938   -2.5458536004    0.0429013903
N        4.1712919271   -1.3707203292   -2.1925703961
O        4.2301328320   -3.4983961706   -2.8102366942
F        3.8123721403    0.3195772807    2.3448001602
H       -2.3445889047    1.0798812642    0.5757396128
H       -0.6164606974    1.6415533791    2.2642726314
H       -1.8176880911   -0.5514617981   -1.2213779262
H        6.7668220159    2.0011556801   -0.6168992944
H        1.5747777231    0.6201617163    2.1833148246
H        0.4101446840   -1.5907013970   -1.3353613090
H        6.0202599988    0.4488320823   -2.3798411445
H        5.7099853774    1.9023590755    1.6253860015
H        3.5939149946   -4.2815464402   -0.5068898611
H        4.6031091498   -3.0056806182    0.1825787594
H        4.4988629121   -1.2184202247   -3.1377161452
30   

C       -1.3953840312    0.5925440394    0.5638236959
C       -0.3302352677    1.1088880339    1.2999667297
C       -1.1811346711   -0.4974080233   -0.2763565376
C        5.9682367047    1.3169305223   -0.2931120542
C        0.9455428988    0.5403426082    1.1948234301
C        0.0938543768   -1.0624113933   -0.3772738603
C        5.5344094094    0.5144055733   -1.3435632668
C        5.3546231489    1.2007045043    0.9505768204
C        1.1951930337   -0.5529891977    0.3490428314
C        3.7675022691   -0.4052246380    0.0524995867
C        4.4685577003   -0.3724481350   -1.1760301874
C        4.2765556346    0.3322965133    1.1412332505
C        2.5225424563   -1.2307163947    0.1990942365
C        4.0686036683   -2.6046112089   -1.9747992957
C        3.7524361798   -3.1510448681   -0.5747126807
N        2.5242452391   -2.5254250256   -0.0369213153
N        4.1827792130   -1.2533611442   -2.2201465721
O        4.2368901142   -3.3552800086   -2.9230887927
F        3.7789201410    0.1807464705    2.3896761482
H       -2.3825247955    1.0335999599    0.6451176904
H       -0.4908707925    1.9559769420    1.9572008276
H       -2.0019191000   -0.9105717387   -0.8516898850
H        6.8004193134    1.9989146393   -0.4337456957
H        1.7216074529    0.9975603936    1.7868067792
H        0.2275002114   -1.9128751736   -1.0378661920
H        6.0538989085    0.5616286609   -2.2937170666
H        5.7191489984    1.7804812003    1.7901745642
H        3.6042133939   -4.2317049561   -0.6524562286
H        4.6038622817   -2.9790512816    0.0899755712
H        4.5168880829   -1.0619796312   -3.1558355370
30   

C       -1.4013460056    0.6020698424    0.6177994222
C       -0.2712514629    1.2484955808    1.1151512905
C       -1.2580971206   -0.6192116180   -0.0359370327
C        5.9829392873    1.3016239492   -0.1745743286
C        0.9979020472    0.6771238559    0.9595581623
C        0.0105147134   -1.1873410989   -0.1882292351
C        5.5796049200    0.5336740625   -1.2628597388
C        5.3173629454    1.1646530741    1.0401716390
C        1.1767213221   -0.5509647835    0.3009932529
C        3.7504551548   -0.3999427001    0.0392127777
C        4.4971496777   -0.3432090773   -1.1608125228
C        4.2208436214    0.3077771895    1.1644246106
C        2.5016625607   -1.2251632483    0.1332735185
C        4.1046176355   -2.5465404038   -2.0356938882
C        3.7521177137   -3.1282378329   -0.6588440121
N        2.5127350842   -2.5148090738   -0.1321465750
N        4.2388703027   -1.1905114243   -2.2388224997
O        4.2928099512   -3.2722649284   -2.9995574856
F        3.6488382008    0.1502397421    2.3812430814
H       -2.3835153975    1.0454657325    0.7375041626
H       -0.3756424583    2.2009419791    1.6223543431
H       -2.1295588517   -1.1324432539   -0.4265157556
H        6.8291171236    1.9749401688   -0.2643956422
H        1.8282619070    1.2454603690    1.3499595682
H        0.0807261568   -2.1413338922   -0.7002585357
H        6.1360170219    0.5992847357   -2.1907744893
H        5.6523779574    1.7211213051    1.9074275341
H        3.6040527343   -4.2060786816   -0.7690384134
H        4.5876413242   -2.9766135068    0.0304970786
H        4.6018507965   -0.9749334436   -3.1583576403
30   

C       -1.3883054298    0.6303816764    0.6684342919
C       -0.2218460163    1.3520085005    0.9164630149
C       -1.2969222124   -0.6830131683    0.2135500480
C        5.9871165703    1.2652443565   -0.0644505431
C        1.0321794345    0.7632588111    0.7118254896
C       -0.0433015911   -1.2687769412    0.0110985313
C        5.6288853119    0.5164344320   -1.1815424370
C        5.2559187412    1.1277190626    1.1116156254
C        1.1572832009   -0.5583686788    0.2527167738
C        3.7284524726   -0.4144806634    0.0166424526
C        4.5319507334   -0.3479800884   -1.1462783674
C        4.1434907968    0.2849391039    1.1693195378
C        2.4754256581   -1.2336682763    0.0526186938
C        4.1432380696   -2.5223290503   -2.0948393782
C        3.7323961245   -3.1320833106   -0.7477993534
N        2.4839596315   -2.5162821132   -0.2460087056
N        4.3106681732   -1.1650822412   -2.2551505990
O        4.3575592005   -3.2261346533   -3.0694412663
F        3.4859946575    0.1475786721    2.3448119115
H       -2.3589214362    1.0871244680    0.8261506414
H       -0.2865278443    2.3762979185    1.2656485496
H       -2.1972695317   -1.2541270422    0.0171047711
H        6.8452123407    1.9283057970   -0.1030100498
H        1.8928856331    1.3894690576    0.8988861838
H       -0.0149180022   -2.2950594573   -0.3395322373
H        6.2308090572    0.5885057429   -2.0801229910
H        5.5480805620    1.6759654723    1.9994095823
H        3.5745251989   -4.2046225960   -0.8910530363
H        4.5450275234   -3.0100410426   -0.0260194950
H        4.7143403721   -0.9317746224   -3.1531535361
30   

C       -1.3666754581    0.6558655430    0.7264521023
C       -0.1966050892    1.4144007074    0.7282205459
C       -1.2970179226   -0.7120772264    0.4692624533
C        5.9774100373    1.2272846603    0.0311075245
C        1.0397534285    0.8075293991    0.4757963760
C       -0.0606965219   -1.3159278830    0.2182129181
C        5.6694265468    0.4891366248   -1.1077300496
C        5.1817346226    1.0958376635    1.1648332367
C        1.1405478513   -0.5688355882    0.2159807932
C        3.7055330177   -0.4373717280   -0.0122069439
C        4.5638132514   -0.3647566692   -1.1360101412
C        4.0597434314    0.2642999850    1.1603424702
C        2.4475223083   -1.2448981690   -0.0352086912
C        4.1704815262   -2.5062135424   -2.1634553626
C        3.6947347224   -3.1441375090   -0.8530102161
N        2.4432283031   -2.5174969340   -0.3735288191
N        4.3811215981   -1.1509839677   -2.2739576039
O        4.4066298460   -3.1859349489   -3.1500155207
F        3.3293372385    0.1457699231    2.2938345667
H       -2.3240178815    1.1262213622    0.9209569213
H       -0.2455320225    2.4800116716    0.9214091361
H       -2.2007815620   -1.3108618001    0.4642286063
H        6.8428554754    1.8817965620    0.0410448161
H        1.9088944293    1.4523310846    0.4651589798
H       -0.0443421238   -2.3835744225    0.0261718672
H        6.3155494681    0.5642408682   -1.9748278769
H        5.4284340780    1.6419976777    2.0676123800
H        3.5193112273   -4.2080823754   -1.0347825641
H        4.4830554571   -3.0626967013   -0.0992970116
H        4.8270608092   -0.9016412606   -3.1473337289
30   

C       -1.3429743455    0.6747019620    0.7788438714
C       -0.2022164639    1.4436071470    0.5455430466
C       -1.2602965372   -0.7161632403    0.7161044314
C        5.9605388546    1.1976762914    0.1148703542
C        1.0184729035    0.8235883441    0.2530448900
C       -0.0392795289   -1.3331217254    0.4242619628
C        5.6995577799    0.4684050699   -1.0410560027
C        5.1088830220    1.0719600926    1.2073481999
C        1.1291328790   -0.5746078033    0.1911146548
C        3.6845206585   -0.4559019296   -0.0397823521
C        4.5897519034   -0.3764183767   -1.1268094121
C        3.9819066922    0.2497284397    1.1470055044
C        2.4217998663   -1.2480046602   -0.1205837588
C        4.1846864371   -2.4796942903   -2.2377650694
C        3.6486950288   -3.1475974390   -0.9678257837
N        2.3993834998   -2.5080183943   -0.5008542341
N        4.4420520754   -1.1299931676   -2.2919320465
O        4.4346835765   -3.1314682289   -3.2396225336
F        3.1942200001    0.1433538576    2.2425923571
H       -2.2887789162    1.1545951836    1.0040252516
H       -0.2627907867    2.5252037841    0.5864822702
H       -2.1421461890   -1.3215648818    0.8925829404
H        6.8297523663    1.8450099757    0.1687057443
H        1.8735546992    1.4601679352    0.0585674543
H       -0.0039650292   -2.4166992783    0.3822248383
H        6.3835517518    0.5470980880   -1.8782783093
H        5.3141758228    1.6162898362    2.1215320686
H        3.4527898332   -4.1996630765   -1.1927590285
H        4.4146464175   -3.1136046653   -0.1879220769
H        4.9254154980   -0.8643401528   -3.1402510199
30   

C       -1.3258188428    0.6897533098    0.8275280187
C       -0.2425820963    1.4405038643    0.3661334345
C       -1.1988096940   -0.6934571322    0.9663570142
C        5.9463826972    1.1518969333    0.2131721513
C        0.9659650511    0.8097103227    0.0480803237
C        0.0102744983   -1.3213091342    0.6483072066
C        5.7239193491    0.4295148399   -0.9547458597
C        5.0471694687    1.0369087057    1.2675363290
C        1.1181926578   -0.5779453543    0.1932471059
C        3.6627337429   -0.4808333631   -0.0367872791
C        4.6087213821   -0.4018729805   -1.0896223064
C        3.9141332668    0.2282139675    1.1594328114
C        2.3944551000   -1.2527502402   -0.1713677642
C        4.1865383448   -2.4686314132   -2.2722606039
C        3.5941555645   -3.1580666778   -1.0407632231
N        2.3504091292   -2.5011039303   -0.5840934023
N        4.4905332633   -1.1281932716   -2.2756282814
O        4.4459793311   -3.0965848510   -3.2868098336
F        3.0802259352    0.1367988451    2.2216380833
H       -2.2627948947    1.1773229880    1.0722368285
H       -0.3394756298    2.5139143115    0.2496304507
H       -2.0374976933   -1.2837456258    1.3176779669
H        6.8199858376    1.7889925863    0.3046700157
H        1.7851464271    1.4159629729   -0.3224204834
H        0.0888487850   -2.3980525310    0.7563075318
H        6.4404175860    0.5064741507   -1.7644828699
H        5.2187320571    1.5799379977    2.1894051875
H        3.3764599273   -4.1967904478   -1.3044028089
H        4.3385516257   -3.1703025715   -0.2396772750
H        5.0080328590   -0.8527294683   -3.1003818422
30   

C       -1.3046329192    0.6989603283    0.8457333474
C       -0.3092787610    1.4099367771    0.1702008269
C       -1.0972393982   -0.6433393735    1.1725698658
C        5.9614732571    1.1062704968    0.2981798040
C        0.8932033564    0.7807096556   -0.1727417035
C        0.1057531746   -1.2697546851    0.8289734894
C        5.7649612095    0.4110740461   -0.8903529303
C        5.0254036468    0.9884174850    1.3191244799
C        1.1242359914   -0.5607883036    0.1655193635
C        3.6625071069   -0.4870004501   -0.0558214265
C        4.6411743030   -0.3982352632   -1.0784189673
C        3.8834515436    0.2011600974    1.1593805591
C        2.3878584588   -1.2329274708   -0.2481526963
C        4.2005239104   -2.4127238931   -2.3492408006
C        3.5593127555   -3.1334653498   -1.1618021531
N        2.3227951200   -2.4643635949   -0.7038323045
N        4.5443206012   -1.0836141520   -2.2907567040
O        4.4674126623   -3.0066837758   -3.3821256275
F        3.0153279461    0.1091610850    2.1937210603
H       -2.2372972595    1.1847197959    1.1097215783
H       -0.4707025643    2.4490640852   -0.0930931531
H       -1.8696281375   -1.2029321256    1.6878250952
H        6.8417093421    1.7268127122    0.4305445987
H        1.6502888276    1.3434265592   -0.7081068333
H        0.2526272235   -2.3160370044    1.0754768220
H        6.5073316012    0.4943558811   -1.6757738550
H        5.1741371113    1.5130834085    2.2554633185
H        3.3211012348   -4.1544525746   -1.4728005306
H        4.2840105536   -3.1986719251   -0.3453994828
H        5.0913881361   -0.7917868850   -3.0904438027
30   

C       -1.3150897990    0.7057049435    0.8560806342
C       -0.4309263949    1.3345404319   -0.0254430164
C       -0.9981885614   -0.5512241301    1.3786948292
C        5.9757531032    1.0336769635    0.4057142327
C        0.7711076543    0.7097294566   -0.3780236384
C        0.2041417963   -1.1732930885    1.0246651711
C        5.7914925426    0.3727485150   -0.8038405531
C        5.0139895153    0.9117912622    1.4016350477
C        1.1110176950   -0.5398070123    0.1575497092
C        3.6531758908   -0.5034982204   -0.0379993061
C        4.6554690447   -0.4071121952   -1.0374665954
C        3.8597385304    0.1531814440    1.1975257259
C        2.3687059663   -1.2163693691   -0.2797109710
C        4.1913361151   -2.3670104032   -2.3868407299
C        3.5085566897   -3.1124899736   -1.2390893232
N        2.2813702231   -2.4288238177   -0.7781080055
N        4.5695794165   -1.0511120800   -2.2733180780
O        4.4619406882   -2.9298615817   -3.4360291609
F        2.9683923397    0.0574812778    2.2113550249
H       -2.2476219150    1.1875026837    1.1276758687
H       -0.6791135698    2.3045664464   -0.4409377916
H       -1.6858781532   -1.0485630771    2.0531669020
H        6.8652584559    1.6321443855    0.5730249465
H        1.4443047060    1.2003683969   -1.0726897552
H        0.4385340619   -2.1561966719    1.4191454096
H        6.5523256752    0.4611703650   -1.5707950986
H        5.1515772113    1.4115509980    2.3531569032
H        3.2499379140   -4.1147918019   -1.5918134412
H        4.2156960098   -3.2267628654   -0.4127726759
H        5.1405716942   -0.7461989245   -3.0511086806
30   

C       -1.3380820019    0.7475586066    0.8333241501
C       -0.5734162824    1.2320261180   -0.2323595817
C       -0.9009375497   -0.3694988530    1.5512487667
C        5.9911152048    0.9683623991    0.5318685476
C        0.6306379848    0.6048018914   -0.5737384607
C        0.3028271232   -0.9947172096    1.2075533682
C        5.8052676392    0.3605433849   -0.7046401576
C        5.0193894610    0.8227412662    1.5144655861
C        1.0910485077   -0.4983622295    0.1556522339
C        3.6456737061   -0.5101658929    0.0090855299
C        4.6580371798   -0.3892654043   -0.9783584022
C        3.8538601159    0.0933530346    1.2712674009
C        2.3503728990   -1.1873814446   -0.2767086218
C        4.1722138404   -2.2801348383   -2.4165333761
C        3.4607073322   -3.0606912042   -1.3106840816
N        2.2426275060   -2.3703711323   -0.8363034547
N        4.5718735601   -0.9774292135   -2.2418926316
O        4.4438304067   -2.8014248351   -3.4867230023
F        2.9551128996   -0.0262794023    2.2750694146
H       -2.2719678401    1.2312067819    1.0968674179
H       -0.9163325717    2.0903118379   -0.7988958489
H       -1.4968249677   -0.7565936909    2.3699246325
H        6.8889472317    1.5446272823    0.7297758520
H        1.2109308313    0.9777419511   -1.4107739630
H        0.6309903939   -1.8717470577    1.7547294322
H        6.5732259287    0.4678734234   -1.4620048754
H        5.1576406797    1.2816591327    2.4862323702
H        3.1853939036   -4.0408203111   -1.7100137470
H        4.1547974852   -3.2255443353   -0.4818719244
H        5.1561358421   -0.6493654781   -3.0001606474
30   

C       -1.3592837129    0.7318282378    0.7412167040
C       -0.7068330103    0.9998997917   -0.4659974810
C       -0.8052418432   -0.1813207347    1.6432703788
C        6.0146301473    0.8814942370    0.6285561475
C        0.5047877718    0.3655113329   -0.7641132626
C        0.4053321524   -0.8158824130    1.3427804188
C        5.8049790732    0.3500781209   -0.6381856093
C        5.0630962342    0.6724414269    1.6186492652
C        1.0873620597   -0.5235980986    0.1491803092
C        3.6572194063   -0.5665734835    0.0614889492
C        4.6532724126   -0.3838355868   -0.9346528858
C        3.8929819609   -0.0423778961    1.3542806707
C        2.3549684202   -1.2225114471   -0.2563019269
C        4.1617314013   -2.1933388035   -2.4691869920
C        3.4562562925   -3.0332229226   -1.4038328874
N        2.2406256858   -2.3635777208   -0.8955477183
N        4.5483755884   -0.8970925625   -2.2291686938
O        4.4305495114   -2.6553704030   -3.5669669042
F        3.0214639417   -0.2253687939    2.3700711097
H       -2.2983179336    1.2220974855    0.9722644478
H       -1.1425820970    1.6946755013   -1.1749746050
H       -1.3169173503   -0.4050069498    2.5724221571
H        6.9154446047    1.4468001665    0.8437503684
H        0.9968043224    0.5658101523   -1.7098795657
H        0.8150294111   -1.5431782957    2.0349200909
H        6.5579894215    0.5049072553   -1.4023099260
H        5.2211189700    1.0701166173    2.6141006255
H        3.1785341816   -3.9905470715   -1.8536064493
H        4.1523899863   -3.2406759035   -0.5863815218
H        5.1221316256   -0.5236834268   -2.9743605684
30   

C       -1.3743743876    0.7201761602    0.6212145942
C       -0.8269817761    0.7176000885   -0.6641960676
C       -0.7135103626    0.0563802627    1.6581146853
C        6.0545230293    0.7935954656    0.6739232892
C        0.3906604434    0.0718642845   -0.9058593123
C        0.5029540391   -0.5923684398    1.4155291198
C        5.7823690203    0.3795629813   -0.6233674240
C        5.1635824253    0.4708195382    1.6887206851
C        1.0926369648   -0.5527874913    0.1381022851
C        3.6785600564   -0.6269425460    0.0971031487
C        4.6244266612   -0.3417358702   -0.9250507451
C        3.9881746544   -0.2346691265    1.4209642873
C        2.3643464633   -1.2594825517   -0.2413071938
C        4.1225819262   -2.0491011302   -2.5602318450
C        3.4617457970   -2.9719547599   -1.5345139646
N        2.2481124278   -2.3499955101   -0.9647121668
N        4.4683867698   -0.7556924808   -2.2495937243
O        4.3757730032   -2.4333240834   -3.6912319119
F        3.1949679744   -0.5433514517    2.4662302970
H       -2.3176097070    1.2205392338    0.8096398285
H       -1.3480044697    1.2110334549   -1.4768034184
H       -1.1510051750    0.0305477816    2.6496698594
H        6.9594267247    1.3505793233    0.8936422057
H        0.7993196349    0.0621569639   -1.9109261966
H        0.9566986916   -1.1507900899    2.2236202681
H        6.4926845711    0.6136662142   -1.4079359614
H        5.3757253710    0.7686154712    2.7087009802
H        3.1883093082   -3.9033560659   -2.0380893801
H        4.1799662196   -3.2167812588   -0.7470057570
H        5.0059828219   -0.3170760900   -2.9861488105
30   

C       -1.3457799249    0.7960249773    0.5082822807
C       -0.9576197018    0.4088690960   -0.7749736663
C       -0.5347624977    0.4817739009    1.6001697751
C        6.0158709818    0.6980365201    0.7981090501
C        0.2400330362   -0.2886128289   -0.9646328797
C        0.6642560336   -0.2163798508    1.4124874487
C        5.6760261356    0.4816799179   -0.5326810084
C        5.2211507801    0.1509174442    1.7997065978
C        1.0719711900   -0.6146682061    0.1226275039
C        3.6612515128   -0.7072596182    0.1432063242
C        4.5313102263   -0.2423404277   -0.8736555049
C        4.0626629525   -0.5657535284    1.4884966825
C        2.3452140741   -1.3322541737   -0.2156694625
C        4.0592068035   -1.8165792336   -2.6328584686
C        3.4896708790   -2.8690339817   -1.6722102097
N        2.2593781002   -2.3676770247   -1.0221634898
N        4.3262704098   -0.5284181028   -2.2246201574
O        4.2973455954   -2.0874787536   -3.7994218825
F        3.3865047027   -1.1568020765    2.4964912309
H       -2.2742329436    1.3360168506    0.6565539648
H       -1.5839601275    0.6481059882   -1.6269077601
H       -0.8365081219    0.7767871301    2.5988116361
H        6.9096385148    1.2591367096    1.0505429433
H        0.5238715620   -0.5773506965   -1.9715474212
H        1.2383363818   -0.4437213948    2.2957671752
H        6.3271464155    0.8617150302   -1.3114480149
H        5.5031922419    0.2697108737    2.8390677026
H        3.2544783232   -3.7687525067   -2.2475900494
H        4.2452997322   -3.1369885229   -0.9282465987
H        4.8088416189    0.0044115054   -2.9366848679
30   

C       -1.3582636155    0.8061165234    0.4889509557
C       -1.1130410546    0.1681755539   -0.7270749568
C       -0.3953808278    0.7619085860    1.4977192885
C        6.0116308870    0.6151560418    0.9010927008
C        0.0869787650   -0.5221218164   -0.9290982367
C        0.8067839425    0.0733051691    1.2972191080
C        5.6853279006    0.4838867084   -0.4452278248
C        5.1986966490    0.0181834010    1.8602520180
C        1.0590044750   -0.6080423121    0.0866607032
C        3.6489236996   -0.7110058632    0.1371393470
C        4.5360644476   -0.2040318289   -0.8410707614
C        4.0347398388   -0.6617202031    1.4921734524
C        2.3335954269   -1.3137094197   -0.2598973565
C        4.0788837421   -1.6964599255   -2.6696955677
C        3.5100354100   -2.7916063221   -1.7552702963
N        2.2687959127   -2.3284542282   -1.0962624234
N        4.3453788636   -0.4267301693   -2.2054295983
O        4.3231339933   -1.9182638770   -3.8453711970
F        3.3257696683   -1.3032873922    2.4492230227
H       -2.2887003870    1.3401947028    0.6459913150
H       -1.8517304215    0.2089191545   -1.5195660386
H       -0.5766419501    1.2685197121    2.4389156510
H        6.9099259943    1.1473679770    1.1964309436
H        0.2499312547   -0.9957030114   -1.8917539347
H        1.5206117205    0.0984949380    2.1053096484
H        6.3515826995    0.8982367562   -1.1930963858
H        5.4705164922    0.0688490685    2.9078689322
H        3.2886322533   -3.6700759490   -2.3677358521
H        4.2616288382   -3.0826249268   -1.0158936867
H        4.8346398622    0.1363934927   -2.8890247296
30   

C       -1.3836888382    0.7697880171    0.5317955621
C       -1.2454929629   -0.0564411394   -0.5830948979
C       -0.3050225037    0.9429276086    1.3986906368
C        6.0134945057    0.5398610214    0.9952449351
C       -0.0368606442   -0.7195874896   -0.8227335962
C        0.9053281789    0.2819212857    1.1601751275
C        5.7267372299    0.4464564385   -0.3634647831
C        5.1503681218   -0.0470415960    1.9160712416
C        1.0542852004   -0.5929591113    0.0599327243
C        3.6412978568   -0.7031096428    0.1279889030
C        4.5717431413   -0.1993474123   -0.8108607544
C        3.9791767601   -0.6827706896    1.4966308422
C        2.3300522376   -1.2797451729   -0.3125517803
C        4.1329486976   -1.6317039721   -2.6897798040
C        3.5281955343   -2.7392130535   -1.8149845851
N        2.2782586213   -2.2775960768   -1.1711260448
N        4.4159192090   -0.3817324887   -2.1851771505
O        4.3999353504   -1.8282508507   -3.8650282441
F        3.1996962629   -1.2942475072    2.4193033809
H       -2.3206155461    1.2830881652    0.7170011210
H       -2.0748843570   -0.1831909229   -1.2696913060
H       -0.4016992535    1.5997382562    2.2557778395
H        6.9172610600    1.0383865828    1.3300829852
H        0.0303901367   -1.3401562198   -1.7101258877
H        1.7139513785    0.4878486327    1.8457438849
H        6.4280985014    0.8571437947   -1.0806465535
H        5.3855248150   -0.0197309595    2.9734259811
H        3.3098962232   -3.5997841737   -2.4533959828
H        4.2591534817   -3.0581065971   -1.0665098388
H        4.9336741813    0.1893221464   -2.8406271536
30   

C       -1.3959364510    0.7308933282    0.5957828614
C       -1.3379368542   -0.2479746124   -0.3956908427
C       -0.2357910683    1.0821017092    1.2850093339
C        6.0054971701    0.4600393515    1.0702670370
C       -0.1262386659   -0.8839998042   -0.6885068288
C        0.9769444719    0.4480015887    0.9929684558
C        5.7684874861    0.3927555558   -0.2994978285
C        5.0854194034   -0.1021573407    1.9499716101
C        1.0523946150   -0.5748946119    0.0188859514
C        3.6319643123   -0.6998571357    0.0949870440
C        4.6115399104   -0.2088961989   -0.8008861570
C        3.9111388755   -0.6928471591    1.4777068179
C        2.3251406760   -1.2411842249   -0.3933222778
C        4.1878534707   -1.5711520662   -2.7363981357
C        3.5281727417   -2.6843158243   -1.9122794407
N        2.2747767720   -2.2100987465   -1.2848717882
N        4.4983251621   -0.3492008947   -2.1841569567
O        4.4826536745   -1.7406887917   -3.9092065199
F        3.0601349712   -1.2593828319    2.3651799029
H       -2.3351179162    1.2235349049    0.8212589055
H       -2.2331121142   -0.5152918888   -0.9457389833
H       -0.2715527258    1.8564977038    2.0428674895
H        6.9114563761    0.9241375205    1.4461836024
H       -0.1286518754   -1.6295123009   -1.4765720606
H        1.8500128033    0.7906411930    1.5311087225
H        6.5092235182    0.7914667577   -0.9830851134
H        5.2753325756   -0.0871796277    3.0166626979
H        3.3037916136   -3.5189365412   -2.5822436522
H        4.2300725631   -3.0461126288   -1.1555831037
H        5.0534781709    0.2243294240   -2.8059790095
30   

C       -1.3921573494    0.6951801276    0.6659555252
C       -1.3800389654   -0.4103955977   -0.1848335815
C       -0.1886338653    1.1980902703    1.1601927137
C        5.9903133541    0.3835189028    1.1511297634
C       -0.1686602618   -1.0188420997   -0.5330618207
C        1.0232108323    0.5912566703    0.8125741221
C        5.8114164947    0.3296507475   -0.2278511351
C        5.0107867020   -0.1430158436    1.9869928616
C        1.0564389666   -0.5485410046   -0.0233314457
C        3.6261316705   -0.6973844874    0.0657491627
C        4.6576979291   -0.2288468274   -0.7841514110
C        3.8387605141   -0.6908230176    1.4612232706
C        2.3243245580   -1.1945799769   -0.4736934371
C        4.2491095839   -1.5203841767   -2.7753721490
C        3.5208105072   -2.6291596182   -2.0080181943
N        2.2680658990   -2.1301732205   -1.3995551622
N        4.5946624246   -0.3326047963   -2.1739696193
O        4.5751473492   -1.6660660087   -3.9430941306
F        2.9232362919   -1.2123933869    2.3109448912
H       -2.3312225346    1.1664038680    0.9336930138
H       -2.3112601957   -0.7984568901   -0.5817554393
H       -0.1914829999    2.0672494387    1.8081355754
H        6.8944341666    0.8142450882    1.5688755361
H       -0.2046645675   -1.8703425727   -1.2042860149
H        1.9330444793    1.0388722801    1.1922653970
H        6.5936629349    0.7086276213   -0.8754939375
H        5.1504506619   -0.1317696970    3.0614841033
H        3.2853992103   -3.4329432200   -2.7110923746
H        4.1854343697   -3.0419860192   -1.2438547810
H        5.1931398521    0.2355586764   -2.7594826658
