28   

C       -0.9864303853    0.3276406978    0.5217252941
C       -2.0409334974   -0.5895520155    0.6208308755
C       -1.7878435443    1.4789605354    2.5031843543
C       -3.9210815156    0.3917739006    3.5397769427
C       -2.8339444436    0.5554035908    2.5899831691
C       -0.8416026630    1.3739989662    1.4579441138
C       -2.9511024336   -0.4560450676    1.6616707055
C       -4.6570454247   -0.7109892841    3.1426344409
C       -5.7902527125   -1.3931287484    3.7610273493
C        1.2176042569    2.2844758272    2.5629080923
C       -0.2032474003    3.7696742539    1.0968232824
C        0.3123451077    2.3470652451    1.3292560358
N       -4.0551453769   -1.2375635774    1.9771121266
O       -6.1773432009   -2.5078616311    3.4361591648
O       -6.3724319867   -0.7090113245    4.7738570810
H       -0.2745529373    0.2218151303   -0.2887737930
H       -2.1447443887   -1.3924841208   -0.0980156365
H       -1.7103710140    2.2651781806    3.2438487089
H       -4.1130630630    0.9999325930    4.4155262632
H        0.6734031672    2.5783883915    3.4654242941
H        2.0726787812    2.9562434905    2.4385673178
H        1.5962973354    1.2663583095    2.6984290455
H       -0.8001173151    4.1145146742    1.9465122665
H       -0.8254266359    3.7997456944    0.1966668461
H        0.6363181077    4.4580738902    0.9587481419
H        0.9162810202    2.0657640791    0.4599783065
H       -4.3670052917   -2.0780266651    1.4945208725
H       -7.0858095571   -1.2860249886    5.0903282262
28   

C       -0.7191887286    0.1396852829    0.7973098015
C       -1.7288345728   -0.8220878260    0.9347570607
C       -1.8743697198    1.5911755878    2.3631893430
C       -4.0728014776    0.5522982142    3.3072384975
C       -2.8724267607    0.6206341052    2.4923668055
C       -0.7737939240    1.3587292459    1.5067738380
C       -2.7943240504   -0.5599104183    1.7866858284
C       -4.6811426212   -0.6639054536    3.0512502774
C       -5.8041141019   -1.3321243718    3.7081728754
C        1.0248090608    2.6519737786    2.6881133791
C       -0.1997042165    3.6673090408    0.7277085479
C        0.3382446460    2.3751303222    1.3471042649
N       -3.8866242892   -1.3556469673    2.1081895016
O       -5.9340257219   -2.5466154377    3.7764410529
O       -6.6703825269   -0.4929075718    4.3225477025
H        0.1148323409   -0.0670282482    0.1365849007
H       -1.6780532513   -1.7580879532    0.3929796054
H       -1.9509686032    2.5107379834    2.9299751874
H       -4.4115947583    1.2917204707    4.0227862027
H        0.3239161208    3.0859005351    3.4074565734
H        1.8561630246    3.3502639382    2.5496916110
H        1.4227507375    1.7211803562    3.1047627762
H       -0.9495216501    4.1301471275    1.3763750347
H       -0.6598160528    3.4537189181   -0.2423243503
H        0.6158691740    4.3805504333    0.5729961310
H        1.0935892425    1.9681348138    0.6664265426
H       -4.0548719900   -2.3101669556    1.7973797237
H       -7.3325046969   -1.0709991122    4.7340755454
28   

C       -0.7446480380    0.1688266519    0.7513376899
C       -1.7605356978   -0.7880601139    0.8772758813
C       -1.8844604800    1.6035334534    2.3434996334
C       -4.0776410552    0.5582784488    3.2905572827
C       -2.8882237523    0.6374905126    2.4614862105
C       -0.7881774833    1.3768537294    1.4801646975
C       -2.8211297444   -0.5322206609    1.7373424310
C       -4.6936213610   -0.6508097569    3.0216005853
C       -5.7700641126   -1.3410629969    3.7408592179
C        1.0184154816    2.6416292287    2.6820872848
C       -0.1936592085    3.6894139103    0.7311620569
C        0.3327188098    2.3859262377    1.3362158602
N       -3.9123156712   -1.3301795457    2.0580594182
O       -5.7641513957   -2.5341678982    4.0049147043
O       -6.7434717739   -0.5210689755    4.2005104861
H        0.0865210480   -0.0338970191    0.0857983736
H       -1.7166042722   -1.7167811790    0.3225548015
H       -1.9516062062    2.5134671143    2.9267744574
H       -4.3950388788    1.2790291288    4.0342882965
H        0.3197540568    3.0733805795    3.4048865725
H        1.8559374486    3.3344454551    2.5536106508
H        1.4076447792    1.7029052036    3.0890767566
H       -0.9420688026    4.1495735339    1.3833669512
H       -0.6524071603    3.4909874266   -0.2427174751
H        0.6276358649    4.3984032252    0.5876067473
H        1.0867070783    1.9810411473    0.6527821175
H       -4.0698426407   -2.2867562039    1.7493039104
H       -7.3531921962   -1.1000022957    4.6852069366
28   

C       -0.7784994649    0.1823210093    0.7134480121
C       -1.8012012560   -0.7682044210    0.8332055792
C       -1.8947887548    1.6027746338    2.3345640578
C       -4.0827710294    0.5567259811    3.2907124850
C       -2.9049564969    0.6427401131    2.4465589150
C       -0.8067729614    1.3799742107    1.4599442812
C       -2.8531953177   -0.5166566446    1.7051686581
C       -4.7088442116   -0.6439031980    3.0121550669
C       -5.7521873969   -1.3441299480    3.7827636174
C        1.0149034346    2.6165034038    2.6703070415
C       -0.1953975169    3.6952340050    0.7353311540
C        0.3223810555    2.3810086112    1.3240817593
N       -3.9450214042   -1.3135246115    2.0273412430
O       -5.6274556102   -2.4655034200    4.2472446862
O       -6.8406134585   -0.5867205830    4.0502677998
H        0.0466320213   -0.0177748465    0.0396513975
H       -1.7677760892   -1.6897609919    0.2659786806
H       -1.9495237966    2.5038924469    2.9326228493
H       -4.3785119815    1.2627171171    4.0570348963
H        0.3226873633    3.0466521144    3.4002152979
H        1.8578898423    3.3034867208    2.5462334291
H        1.3975556831    1.6702825844    3.0660194023
H       -0.9382930343    4.1536817016    1.3950181083
H       -0.6585853972    3.5112950844   -0.2392833668
H        0.6310209376    4.3993355742    0.5972548542
H        1.0708475875    1.9774666290    0.6338197796
H       -4.1026195820   -2.2667103090    1.7098838610
H       -7.4119172910   -1.1492059721    4.5970228304
28   

C       -0.7908539325    0.1986823812    0.6994295254
C       -1.8157959385   -0.7490459974    0.8221639143
C       -1.8781959982    1.6038990661    2.3531320376
C       -4.0580945481    0.5560275521    3.3260618367
C       -2.8907036608    0.6466185816    2.4679672387
C       -0.8037336187    1.3874777148    1.4603295587
C       -2.8543699388   -0.5038122425    1.7119100270
C       -4.6915295561   -0.6365995712    3.0422404410
C       -5.7436563493   -1.3296083416    3.8250237614
C        1.0375588528    2.6073532992    2.6586746966
C       -0.1944526071    3.7071943047    0.7494596109
C        0.3269237443    2.3861505764    1.3194869097
N       -3.9462244863   -1.2990274986    2.0381990064
O       -5.5533278557   -2.3220947437    4.5044438432
O       -6.9415058296   -0.7022748255    3.8115625396
H        0.0237945982    0.0035396698    0.0115641899
H       -1.7941978761   -1.6635831953    0.2431607106
H       -1.9209517924    2.4982035343    2.9622782025
H       -4.3407732272    1.2558947353    4.1027153711
H        0.3563114524    3.0331256827    3.4013461211
H        1.8810639373    3.2928167240    2.5297956654
H        1.4222675724    1.6564293107    3.0408761662
H       -0.9276613501    4.1615050839    1.4227140040
H       -0.6704836950    3.5335532312   -0.2208516387
H        0.6321461675    4.4102855059    0.6073737754
H        1.0652134591    1.9867475275    0.6159822546
H       -4.1178160030   -2.2412788707    1.6977882372
H       -7.5114863246   -1.2319659283    4.3913052108
28   

C       -0.7409153088    0.1692355709    0.8096624233
C       -1.7429450342   -0.7940613152    0.9852906287
C       -1.7922545433    1.5820405211    2.4807076917
C       -3.9463953113    0.5322985146    3.5148979507
C       -2.7843277791    0.6106046725    2.6464397247
C       -0.7479936232    1.3700434466    1.5513262593
C       -2.7529426995   -0.5516270891    1.9078591603
C       -4.5678453863   -0.6674623433    3.2654296198
C       -5.7607136132   -1.2733499419    3.9280683613
C        1.1326186375    2.6252953103    2.6392257473
C       -0.2263198859    3.7030395649    0.8045556056
C        0.3512398523    2.3915453991    1.3430214006
N       -3.8345568138   -1.3468125339    2.2642337612
O       -5.7207123935   -2.0011817551    4.8993623941
O       -6.9343355728   -0.9422551925    3.3438255650
H        0.0486754460   -0.0208055790    0.0917918703
H       -1.7300749588   -1.7143325743    0.4151892983
H       -1.8323440670    2.4887943852    3.0713638545
H       -4.2577464418    1.2717180939    4.2423085972
H        0.4853201389    3.0345603947    3.4205892212
H        1.9528341810    3.3285135925    2.4642133141
H        1.5580448886    1.6817038444    2.9955535347
H       -0.9255038714    4.1466023529    1.5197864110
H       -0.7562328967    3.5203446997   -0.1357282224
H        0.5781383858    4.4200111269    0.6131513624
H        1.0545507880    2.0063919290    0.5970048503
H       -4.0457826878   -2.2676691663    1.8904835111
H       -7.6149758187   -1.3888963863    3.8716874805
28   

C       -0.7091446645    0.0989672467    0.9149777403
C       -1.6958783682   -0.8700038297    1.1400915958
C       -1.7279246414    1.5385113252    2.5831318065
C       -3.8724605688    0.5156319156    3.6605215502
C       -2.7064825585    0.5626544408    2.7957486509
C       -0.7081069229    1.3161684116    1.6295469398
C       -2.6829355289   -0.6164552004    2.0843091489
C       -4.4942707223   -0.6959417128    3.4531348401
C       -5.8127149268   -1.1594621454    3.9537379226
C        1.2090992618    2.5936730141    2.6136306508
C       -0.2484025220    3.6544933904    0.8461496282
C        0.3667014384    2.3490486884    1.3590358829
N       -3.7652982348   -1.3995203408    2.4650277996
O       -6.0629183745   -1.5071615922    5.0908484677
O       -6.7349403014   -1.2824773821    2.9707029765
H        0.0591598007   -0.0972769069    0.1760002005
H       -1.6940357767   -1.7993897813    0.5848339504
H       -1.7656607564    2.4611986179    3.1487702391
H       -4.2172297918    1.3032092385    4.3192787498
H        0.5959954738    2.9960775810    3.4256173477
H        2.0114725979    3.3058381970    2.3971889707
H        1.6620968559    1.6552380505    2.9489161704
H       -0.9117668843    4.0976537804    1.5948982043
H       -0.8256534684    3.4644381072   -0.0643419404
H        0.5397139685    4.3762346836    0.6097651768
H        1.0343237929    1.9680936898    0.5788648532
H       -4.0319199875   -2.2903798834    2.0555738477
H       -7.5319543435   -1.6131059462    3.4147412647
28   

C       -0.7026084162    0.1240962502    0.9331297433
C       -1.6959412980   -0.8326668715    1.1813583270
C       -1.6877710200    1.5932645394    2.5953821247
C       -3.8328451403    0.6090382497    3.7041335985
C       -2.6733342028    0.6298775227    2.8303073391
C       -0.6811915143    1.3495792147    1.6332234037
C       -2.6694476726   -0.5585580172    2.1339361915
C       -4.4701540256   -0.6024412540    3.5213735214
C       -5.7970469325   -1.0163893167    4.0153400257
C        1.2703367002    2.6043375323    2.5743332309
C       -0.2087933324    3.6824363687    0.8357599494
C        0.3995760463    2.3693135674    1.3375255767
N       -3.7574168993   -1.3242953104    2.5344287729
O       -6.1430820753   -1.0740225870    5.1799780831
O       -6.6002800562   -1.4865175767    3.0304703929
H        0.0548207923   -0.0881376975    0.1873845527
H       -1.7100288904   -1.7683118066    0.6368880903
H       -1.7105681265    2.5230720662    3.1500827913
H       -4.1683926679    1.4122810179    4.3488603641
H        0.6783462162    3.0136869531    3.3984695687
H        2.0763460955    3.3071042505    2.3413369328
H        1.7190846568    1.6607122755    2.9006496902
H       -0.8491786234    4.1364096314    1.5978917010
H       -0.8084068723    3.4990796248   -0.0615402999
H        0.5838618688    4.3928423713    0.5809018894
H        1.0457781087    1.9791250959    0.5440073321
H       -4.0564461574   -2.2052912097    2.1250324851
H       -7.4164869682   -1.7541913752    3.4825296063
28   

C       -0.7185395070    0.1453880408    0.9037254768
C       -1.7220244885   -0.8037979213    1.1403045164
C       -1.6883400496    1.6049371114    2.5833896099
C       -3.8410039543    0.6292100642    3.6840221314
C       -2.6838801881    0.6492296534    2.8068738224
C       -0.6843126044    1.3621699579    1.6184168566
C       -2.6927678994   -0.5310201028    2.0960621699
C       -4.4920259588   -0.5742330348    3.4858596909
C       -5.8049862226   -0.9857437453    3.9977311689
C        1.2761931658    2.5902934466    2.5775808609
C       -0.1866721688    3.6965189411    0.8430124273
C        0.4076515371    2.3736487620    1.3357583613
N       -3.7876582754   -1.2907541182    2.4894548144
O       -6.2134288495   -0.8290928908    5.1335999578
O       -6.5195907838   -1.7063875527    3.0979954230
H        0.0369981882   -0.0660234800    0.1558384219
H       -1.7456045184   -1.7329512960    0.5851439325
H       -1.7011334398    2.5279570218    3.1496610413
H       -4.1645072785    1.4240965906    4.3453079586
H        0.6854248072    2.9990393912    3.4028877570
H        2.0898716127    3.2869523150    2.3530277348
H        1.7145378287    1.6397944842    2.8980203120
H       -0.8260062040    4.1495604983    1.6066010350
H       -0.7843841016    3.5263540688   -0.0581450115
H        0.6133931969    4.4018562752    0.5974149469
H        1.0531142184    1.9839579317    0.5414017116
H       -4.0987227927   -2.1664737525    2.0766547331
H       -7.3379601705   -1.9412102682    3.5645922137
28   

C       -0.7403429942    0.1702157045    0.8629819575
C       -1.7560255219   -0.7710051060    1.0783459276
C       -1.7069697555    1.6167231726    2.5558137747
C       -3.8732862278    0.6455670734    3.6338154792
C       -2.7145160970    0.6690201318    2.7584788788
C       -0.6981523489    1.3762695099    1.5952453869
C       -2.7310545859   -0.5010329402    2.0304779777
C       -4.5359977470   -0.5478606947    3.4122954464
C       -5.8264074028   -0.9786581975    3.9521444807
C        1.2661747484    2.5700638714    2.5905811200
C       -0.1656483405    3.7135179772    0.8542514318
C        0.4085131302    2.3782526400    1.3370405507
N       -3.8337497272   -1.2567753100    2.4094790724
O       -6.2991767223   -0.6495571103    5.0249264598
O       -6.4499838282   -1.8964074986    3.1706958329
H        0.0191201890   -0.0394116334    0.1185801086
H       -1.7847877043   -1.6925718945    0.5109147607
H       -1.7130859571    2.5310414841    3.1361596744
H       -4.1854099346    1.4266877274    4.3168181784
H        0.6715116900    2.9760154556    3.4144634996
H        2.0902140289    3.2597720097    2.3829667069
H        1.6901138508    1.6108400972    2.9043441372
H       -0.8083552534    4.1641370559    1.6164520374
H       -0.7552779859    3.5609659844   -0.0553400359
H        0.6448023694    4.4128127682    0.6260710818
H        1.0581491804    1.9907763802    0.5450085546
H       -4.1430885291   -2.1354253661    2.0008039785
H       -7.2667931961   -2.1119984607    3.6494178175
28   

C       -0.7424711363    0.2164508422    0.8118378871
C       -1.7697005570   -0.7160285248    1.0097465383
C       -1.6911117701    1.6429871509    2.5316588963
C       -3.8616785239    0.6727133667    3.6019861071
C       -2.7097387400    0.7037895112    2.7175975962
C       -0.6855631142    1.4081556268    1.5662885335
C       -2.7413312743   -0.4518969634    1.9669435641
C       -4.5400916984   -0.5068694271    3.3555514157
C       -5.7976079818   -0.9650496595    3.9413779777
C        1.2833790262    2.5726330531    2.5907564585
C       -0.1223274927    3.7447704665    0.8522113938
C        0.4346226217    2.4000101338    1.3281675309
N       -3.8492570176   -1.2042869002    2.3372984228
O       -6.3343521811   -0.5044209199    4.9328328499
O       -6.3297484549   -2.0337474865    3.2951001796
H        0.0149216121    0.0109380172    0.0641895837
H       -1.8089689152   -1.6271699493    0.4263306317
H       -1.6851014017    2.5456401437    3.1300022550
H       -4.1531786339    1.4343717799    4.3155368620
H        0.6865202939    2.9792778113    3.4126787324
H        2.1168217568    3.2546298489    2.3955362617
H        1.6939354326    1.6064324463    2.9008726191
H       -0.7685496338    4.1938251459    1.6123988864
H       -0.7044425294    3.6058813365   -0.0643866799
H        0.6966399826    4.4386371494    0.6383691064
H        1.0875569148    2.0126966113    0.5387753853
H       -4.1548090286   -2.0879524020    1.9361817361
H       -7.1404136297   -2.2396205841    3.7884544787
28   

C       -0.7819191735    0.2344675741    0.7772702775
C       -1.8239802898   -0.6845614323    0.9601146118
C       -1.7179913653    1.6568754894    2.5073606688
C       -3.9008748495    0.7017331899    3.5659915564
C       -2.7512417798    0.7309735721    2.6785079295
C       -0.7109337463    1.4170242912    1.5448248525
C       -2.7965063002   -0.4160178438    1.9151795288
C       -4.5963085683   -0.4641253137    3.3025064698
C       -5.8215452716   -0.9477713425    3.9326791651
C        1.2683498756    2.5402067323    2.5962836881
C       -0.1047020653    3.7504415042    0.8577556176
C        0.4270731122    2.3927633538    1.3253657570
N       -3.9126727145   -1.1597563548    2.2783025349
O       -6.4421167964   -0.3834280649    4.8158495214
O       -6.2440795708   -2.1388345885    3.4365057814
H       -0.0231857968    0.0249659835    0.0320934075
H       -1.8728188780   -1.5897166977    0.3681661403
H       -1.7004002486    2.5519054660    3.1168278169
H       -4.1728552680    1.4494343896    4.3017116898
H        0.6716408440    2.9489505123    3.4172682265
H        2.1141392371    3.2104906100    2.4139886376
H        1.6609888162    1.5648014494    2.9007552150
H       -0.7502610621    4.2022144916    1.6169035341
H       -0.6811959487    3.6292562282   -0.0648794168
H        0.7267772960    4.4333425110    0.6573570737
H        1.0802633918    2.0023522881    0.5377147065
H       -4.2107457345   -2.0525584999    1.8918954417
H       -7.0526760100   -2.3389843650    3.9356193143
28   

C       -0.7994860457    0.2664484603    0.7399869541
C       -1.8510721540   -0.6446458758    0.9071992402
C       -1.7286485729    1.6759070433    2.4843468755
C       -3.9174267811    0.7216335631    3.5317246204
C       -2.7712555177    0.7577628633    2.6400638560
C       -0.7199114639    1.4382652501    1.5229991467
C       -2.8246560554   -0.3787875740    1.8619304568
C       -4.6235517380   -0.4336223820    3.2503700097
C       -5.8116275527   -0.9527619262    3.9237487212
C        1.2641646398    2.5281351203    2.6014425347
C       -0.0832861941    3.7718181357    0.8664830487
C        0.4304719879    2.4036078033    1.3229365931
N       -3.9442386037   -1.1209380670    2.2175997640
O       -6.5321557814   -0.3307616817    4.6834922571
O       -6.1005622500   -2.2349958517    3.5841065885
H       -0.0392461578    0.0584269207   -0.0040692367
H       -1.9052777594   -1.5426810852    0.3049623074
H       -1.7035773617    2.5618341254    3.1067115760
H       -4.1728502507    1.4516281658    4.2907485123
H        0.6663110362    2.9349628536    3.4225373642
H        2.1187044000    3.1907435773    2.4323288715
H        1.6437584022    1.5452637368    2.8983783742
H       -0.7297903330    4.2218840319    1.6258467659
H       -0.6540739392    3.6668016257   -0.0616585127
H        0.7568707259    4.4479483177    0.6798249843
H        1.0852755459    2.0146180805    0.5359205558
H       -4.2287024102   -2.0231241400    1.8430839935
H       -6.9065111320   -2.4450025456    4.0834099409
28   

C       -0.8611262953    0.2760559531    0.7108638381
C       -1.9256373721   -0.6223053055    0.8646559226
C       -1.7672088176    1.6694185737    2.4800404551
C       -3.9605413343    0.7219725115    3.5239744369
C       -2.8222702991    0.7634211670    2.6227898272
C       -0.7635483476    1.4334936400    1.5129687221
C       -2.8938769886   -0.3582935074    1.8253490717
C       -4.6860709524   -0.4163111872    3.2232415021
C       -5.8386814728   -0.9680592267    3.9368512601
C        1.2287624228    2.4897058679    2.6133010807
C       -0.0916871700    3.7614812226    0.8779493591
C        0.4016746902    2.3840787101    1.3285992869
N       -4.0195388638   -1.0938757724    2.1753894942
O       -6.6632245739   -0.3301812168    4.5660720401
O       -5.9841459670   -2.3054907284    3.7582715858
H       -0.1045287646    0.0689451280   -0.0371517542
H       -1.9928775551   -1.5100968231    0.2487048529
H       -1.7275863480    2.5435875363    3.1180648488
H       -4.1913955751    1.4317547679    4.3094544755
H        0.6317478462    2.9003492525    3.4330712699
H        2.0934181533    3.1414072968    2.4534083557
H        1.5929717393    1.5000618723    2.9069801564
H       -0.7389519530    4.2135322848    1.6355131576
H       -0.6563376633    3.6698219530   -0.0553518240
H        0.7579929074    4.4286982796    0.7027160794
H        1.0568980933    1.9916716658    0.5436288518
H       -4.2971024001   -2.0004184795    1.8067832480
H       -6.7867165657   -2.5335807916    4.2549476626
28   

C       -0.8958474674    0.3007646663    0.6803676395
C       -1.9754848399   -0.5815797428    0.8209257573
C       -1.7866153526    1.6909623409    2.4596798500
C       -3.9938153491    0.7631082391    3.4915516086
C       -2.8566079139    0.8006028448    2.5892876499
C       -0.7827553335    1.4483344271    1.4944974293
C       -2.9432844638   -0.3113764729    1.7803926907
C       -4.7373286877   -0.3591525146    3.1767644894
C       -5.8680229722   -0.9306431795    3.9184847065
C        1.2198020833    2.4620420085    2.6171820506
C       -0.0673853118    3.7691356843    0.8830851383
C        0.3998134564    2.3802882237    1.3260794233
N       -4.0786631569   -1.0355689321    2.1227346383
O       -6.8039965676   -0.3109462785    4.3891141453
O       -5.8585705650   -2.2868306816    3.9318200214
H       -0.1391246551    0.0883062572   -0.0660230942
H       -2.0537548526   -1.4627364739    0.1968088409
H       -1.7346276881    2.5571286587    3.1076348165
H       -4.2058418587    1.4601534296    4.2934061416
H        0.6244136721    2.8766204205    3.4361437318
H        2.0964700819    3.1001332053    2.4681303182
H        1.5652278530    1.4641752357    2.9057002366
H       -0.7126228175    4.2256575944    1.6397022522
H       -0.6267193383    3.6941725066   -0.0548926562
H        0.7944436311    4.4235419765    0.7192760682
H        1.0538880384    1.9830031133    0.5426034704
H       -4.3522600623   -1.9441791420    1.7571909722
H       -6.6627414724   -2.5341125234    4.4163234587
28   

C       -0.9225932362    0.3168767663    0.6560034769
C       -2.0107890000   -0.5566327231    0.7845860443
C       -1.8016132402    1.6928551720    2.4521362658
C       -4.0162755048    0.7696781885    3.4731167595
C       -2.8801353387    0.8110495972    2.5698177744
C       -0.7992617192    1.4528999034    1.4846402783
C       -2.9766721620   -0.2892324718    1.7467820424
C       -4.7699200906   -0.3396920674    3.1436219910
C       -5.8940696780   -0.9315941741    3.8932503350
C        1.2088810545    2.4380240747    2.6240775281
C       -0.0601149995    3.7716128951    0.8966661363
C        0.3928460078    2.3749210360    1.3293645808
N       -4.1176861038   -1.0084220882    2.0803641354
O       -6.9383429236   -0.3764327842    4.1773857444
O       -5.7256676072   -2.2544803173    4.1336363237
H       -0.1671038054    0.1063595987   -0.0921919769
H       -2.0965676138   -1.4293462779    0.1496916710
H       -1.7415011995    2.5498853867    3.1114086514
H       -4.2164471592    1.4540892206    4.2885777037
H        0.6146703227    2.8515141540    3.4444242015
H        2.0921281114    3.0689202909    2.4834494409
H        1.5437830398    1.4345404022    2.9054398149
H       -0.7046046120    4.2270072090    1.6546042109
H       -0.6161131449    3.7097439034   -0.0442506503
H        0.8081287916    4.4197687663    0.7421796236
H        1.0462956522    1.9783677411    0.5449893576
H       -4.3916587847   -1.9114006934    1.7025464195
H       -6.5352031792   -2.5280214127    4.5941012681
28   

C       -0.9246724487    0.2880044043    0.6435241294
C       -1.9992304535   -0.6038821143    0.7579227193
C       -1.8371805662    1.6343522403    2.4456386331
C       -4.0482813151    0.6699306682    3.4391282235
C       -2.9026450876    0.7347730469    2.5486991343
C       -0.8247643030    1.4184658868    1.4827283975
C       -2.9750546971   -0.3601522390    1.7162951818
C       -4.7772240244   -0.4476294908    3.0966810807
C       -5.9288305161   -1.0575531594    3.8076997447
C        1.1706252407    2.4090837695    2.6359559722
C       -0.1198622445    3.7598960020    0.9378420370
C        0.3529020246    2.3610667052    1.3418867694
N       -4.1080096609   -1.0988019719    2.0332410360
O       -7.0651516508   -0.6275459136    3.8273465415
O       -5.6286840617   -2.2533739471    4.3661931625
H       -0.1615146118    0.0962465692   -0.1019357322
H       -2.0672054064   -1.4720188011    0.1146569537
H       -1.7950297653    2.4869542826    3.1119836648
H       -4.2708919732    1.3503247488    4.2519094304
H        0.5715615620    2.7958662879    3.4657689176
H        2.0440945950    3.0559076675    2.5071699812
H        1.5209796660    1.4049400098    2.8953428635
H       -0.7673375596    4.1924918759    1.7064673195
H       -0.6782293487    3.7090247216   -0.0023291323
H        0.7394051051    4.4221241099    0.7931260083
H        1.0097684930    1.9895116483    0.5481698880
H       -4.3739779381   -1.9902507295    1.6246453826
H       -6.4573151968   -2.5562405714    4.7703699774
28   

C       -0.8217961854    0.2400543095    0.7080051626
C       -1.8624535952   -0.6893307128    0.8349899008
C       -1.7635745505    1.5568307345    2.5171150467
C       -3.9601724292    0.5444208695    3.4978403269
C       -2.7970236690    0.6217171917    2.6307390605
C       -0.7540431275    1.3752448624    1.5439517312
C       -2.8371039761   -0.4778501140    1.8021170317
C       -4.6512399243   -0.5942563146    3.1606607866
C       -5.9479945077   -1.1089150896    3.6923408626
C        1.2361654217    2.4194875813    2.6491032874
C       -0.1534842939    3.7538734514    1.0173711362
C        0.3808895328    2.3654031190    1.3805933856
N       -3.9578249647   -1.2386893315    2.1092317168
O       -7.0409112536   -0.8423953158    3.2349022983
O       -5.8117749717   -1.9273975826    4.7599936706
H       -0.0626373476    0.0766679501   -0.0482290087
H       -1.9100860895   -1.5565468973    0.1886559524
H       -1.7494539439    2.4160544567    3.1760685514
H       -4.2459140228    1.2614176481    4.2574945057
H        0.6479632137    2.7657306418    3.5042610505
H        2.0800051005    3.1018829679    2.5073002279
H        1.6318847303    1.4244341435    2.8762454964
H       -0.7882446190    4.1521740148    1.8145276554
H       -0.7414929118    3.6996484223    0.0956187012
H        0.6772421531    4.4478582723    0.8555766023
H        1.0243828552    2.0326868858    0.5591638796
H       -4.2438555224   -2.0939248763    1.6412133493
H       -6.7168096815   -2.1770595392    5.0048993435
28   

C       -0.7439207828    0.1572874287    0.7589805656
C       -1.7460337037   -0.8104603067    0.9106144293
C       -1.6912246823    1.4398043847    2.5891293353
C       -3.8513081735    0.3746548659    3.5871694686
C       -2.6873640448    0.4681730010    2.7247173612
C       -0.6992228123    1.2956431884    1.5923575923
C       -2.7061627198   -0.6339632573    1.8992623453
C       -4.5177212593   -0.7890634660    3.2618941724
C       -5.8931500848   -1.1982705473    3.6370293352
C        1.2926309686    2.4020260963    2.6248762997
C       -0.2159160428    3.7073316347    1.0779217599
C        0.3858895541    2.3342675680    1.3939618905
N       -3.8084683602   -1.4199696378    2.2124622901
O       -6.8444208643   -1.1888765178    2.8768579809
O       -6.0403168727   -1.4929583514    4.9485448497
H        0.0002041978    0.0239531375   -0.0178022867
H       -1.7804573810   -1.6759024825    0.2610651124
H       -1.6985581036    2.3030946213    3.2428447531
H       -4.1830520903    1.1176677535    4.3018651013
H        0.7278035774    2.7086574478    3.5104337227
H        2.1011791278    3.1209405243    2.4599426343
H        1.7374191082    1.4202233295    2.8158933830
H       -0.8267148701    4.0713611896    1.9093953761
H       -0.8436979286    3.6449480895    0.1833081900
H        0.5803557288    4.4342302730    0.8894001833
H        1.0041591413    2.0401071028    0.5391369770
H       -4.1146457017   -2.2441550587    1.7024283618
H       -6.9828550077   -1.6956472484    5.0585042396
28   

C       -0.7579419660    0.1641609643    0.7396951771
C       -1.7583564343   -0.8059159130    0.8876180240
C       -1.6846072387    1.4183046056    2.5998626449
C       -3.8344114143    0.3388104427    3.6042226102
C       -2.6790877280    0.4445101914    2.7316999948
C       -0.7040770395    1.2897772204    1.5897045167
C       -2.7072940487   -0.6447544327    1.8895321177
C       -4.5059452877   -0.8219427994    3.2684075845
C       -5.8724523689   -1.2385256555    3.6315096434
C        1.2965764838    2.3858081726    2.6170233376
C       -0.2290757881    3.7081765733    1.1016531460
C        0.3779034662    2.3322016116    1.3942899517
N       -3.8073502268   -1.4343804417    2.2013736579
O       -6.7562650720   -1.4747885331    2.8241463212
O       -6.1182744142   -1.2205598239    4.9616026624
H       -0.0227035202    0.0429116337   -0.0474549009
H       -1.8004676005   -1.6612185044    0.2251874548
H       -1.6849396446    2.2717170273    3.2664740001
H       -4.1605203945    1.0714987258    4.3322040830
H        0.7401536347    2.6806554594    3.5118493186
H        2.1025572789    3.1078365763    2.4531285137
H        1.7444332981    1.4023062827    2.7913743296
H       -0.8324667771    4.0604137787    1.9435589713
H       -0.8653629556    3.6561700967    0.2123956721
H        0.5641610832    4.4388119417    0.9148012266
H        0.9882082107    2.0498655200    0.5298107223
H       -4.1307745757   -2.2420597318    1.6748470915
H       -7.0537186863   -1.4634517390    5.0491610482
28   

C       -0.7797354063    0.1994891909    0.7074150980
C       -1.7853579685   -0.7663973210    0.8463649783
C       -1.6867329230    1.4299929925    2.5930851007
C       -3.8314042601    0.3422325033    3.6013901004
C       -2.6862605855    0.4602411174    2.7164796665
C       -0.7133568827    1.3111139147    1.5747658981
C       -2.7266016121   -0.6152374287    1.8569288041
C       -4.5104849702   -0.8114995654    3.2529426883
C       -5.8466392577   -1.2737979431    3.6447136256
C        1.2973675776    2.3808105324    2.6116573175
C       -0.2233623093    3.7313695393    1.1161781081
C        0.3755536396    2.3482464858    1.3904106493
N       -3.8258794124   -1.4060724819    2.1674968668
O       -6.6656075215   -1.7429806067    2.8685574269
O       -6.1574039881   -1.0353122593    4.9399902843
H       -0.0496264647    0.0854075061   -0.0855589304
H       -1.8363517847   -1.6118526834    0.1719962733
H       -1.6763815367    2.2719576039    3.2740299047
H       -4.1416067460    1.0567204878    4.3541450567
H        0.7452200144    2.6687858251    3.5113451633
H        2.1079433019    3.0991964751    2.4545324593
H        1.7388976745    1.3922635110    2.7731813103
H       -0.8231938810    4.0764317705    1.9635918892
H       -0.8615300584    3.6942844090    0.2275221891
H        0.5740166878    4.4594065427    0.9370344309
H        0.9822704395    2.0725570663    0.5212720038
H       -4.1575851768   -2.2098153480    1.6391481199
H       -7.0704160366   -1.3480570434    5.0422307102
28   

C       -0.8191412001    0.2272796901    0.6715786551
C       -1.8334232215   -0.7304163097    0.8032396592
C       -1.7038804932    1.4415345811    2.5784259739
C       -3.8450890314    0.3524985424    3.5947048168
C       -2.7118432748    0.4796941337    2.6951716995
C       -0.7369675337    1.3263341814    1.5534606353
C       -2.7672351716   -0.5837428706    1.8212130632
C       -4.5345213537   -0.7925578969    3.2365307664
C       -5.8312240936   -1.3082785185    3.6743937770
C        1.2859690903    2.3634040108    2.6014533945
C       -0.2198966438    3.7442830771    1.1185284462
C        0.3639797497    2.3524588657    1.3797405567
N       -3.8663923910   -1.3734413749    2.1341205313
O       -6.5694137211   -1.9889497970    2.9756171731
O       -6.2046952405   -0.9015006315    4.9101984364
H       -0.0935717605    0.1156994304   -0.1259035562
H       -1.8951544165   -1.5677119252    0.1196293440
H       -1.6799576257    2.2729170750    3.2719239626
H       -4.1330555878    1.0473620852    4.3743037930
H        0.7373075594    2.6497578772    3.5037756170
H        2.1048204014    3.0737586961    2.4508281975
H        1.7161429532    1.3684656565    2.7542131077
H       -0.8168989498    4.0870777835    1.9688684479
H       -0.8576476346    3.7224092844    0.2290758412
H        0.5853066420    4.4655145789    0.9470876451
H        0.9680731025    2.0781553086    0.5083383875
H       -4.1998174722   -2.1830248938    1.6150629949
H       -7.0835703858   -1.2893507993    5.0484065340
28   

C       -0.8908736624    0.2300978230    0.6208645609
C       -1.9188700716   -0.7134182867    0.7474851144
C       -1.7422718899    1.4321052491    2.5507069623
C       -3.8808115058    0.3506523709    3.5824137867
C       -2.7634872479    0.4838179188    2.6633758535
C       -0.7848731954    1.3155519395    1.5169111683
C       -2.8420916035   -0.5664241977    1.7749218872
C       -4.5873763992   -0.7815025797    3.2157750104
C       -5.8371037687   -1.3473621823    3.7156515751
C        1.2532111649    2.3147249808    2.5758927133
C       -0.2276559627    3.7250712058    1.0953543696
C        0.3339326775    2.3235392208    1.3518061441
N       -3.9432575925   -1.3506574874    2.0936546846
O       -6.4818163694   -2.2064048139    3.1287967693
O       -6.2681295319   -0.8125063433    4.8822381647
H       -0.1720628119    0.1169861549   -0.1825000110
H       -1.9972022510   -1.5420427251    0.0550529851
H       -1.6982888635    2.2519859243    3.2568093742
H       -4.1368771953    1.0229423715    4.3924189556
H        0.7078636458    2.6074814823    3.4781428005
H        2.0842825309    3.0116610929    2.4295160538
H        1.6663333251    1.3122241483    2.7263192906
H       -0.8229343120    4.0720463963    1.9452356900
H       -0.8622527675    3.7169758167    0.2034202252
H        0.5889697576    4.4348954019    0.9305518495
H        0.9361845230    2.0432374853    0.4810377190
H       -4.2759735745   -2.1706021075    1.5901491391
H       -7.1027073320   -1.2687511374    5.0754415350
28   

C       -0.9242983689    0.2957633557    0.5687668028
C       -1.9643006434   -0.6367166141    0.6774074161
C       -1.7570472658    1.4679613937    2.5249649508
C       -3.8931746733    0.3776671001    3.5531632264
C       -2.7894559777    0.5299501753    2.6205539685
C       -0.8026226302    1.3604748435    1.4874095992
C       -2.8834676704   -0.4997279253    1.7098119134
C       -4.6110752842   -0.7411827637    3.1681267914
C       -5.8023309394   -1.3745190379    3.7238753191
C        1.2434412750    2.3144851010    2.5756822087
C       -0.2071458648    3.7656577735    1.1045742524
C        0.3328207845    2.3532173812    1.3453704154
N       -3.9849730435   -1.2852651920    2.0236562316
O       -6.3227331952   -2.3789757096    3.2558742072
O       -6.3065837535   -0.7606171443    4.8201214101
H       -0.2068652516    0.1888046553   -0.2366684739
H       -2.0524083946   -1.4517028232   -0.0298831070
H       -1.6990276897    2.2699957075    3.2502940853
H       -4.1200566731    1.0162630987    4.3983812997
H        0.6968250171    2.6040326795    3.4781782178
H        2.0859926978    3.0005033719    2.4440073275
H        1.6404523107    1.3040197465    2.7159386652
H       -0.8047047614    4.1081944413    1.9546788734
H       -0.8345250039    3.7787629231    0.2076177234
H        0.6204682289    4.4663505957    0.9564569735
H        0.9375647066    2.0760035240    0.4753412313
H       -4.3057216199   -2.1159644196    1.5298939185
H       -7.0822978242   -1.2878551204    5.0697343681
