31

C      1.70288   -2.02605   -1.50144
C      1.61224   -0.96050   -0.60180
C      2.38309   -1.84154   -2.70650
C      2.85219    0.33474   -2.19156
C      2.20120    0.26043   -0.94864
C      4.01187    2.99318    0.63016
C      1.16882    1.60256    1.03706
C      5.40367    3.20703    1.19807
C     -0.11481    3.19656    2.38562
C      4.18786    0.54345    1.14646
C      2.21944    1.50851   -0.08637
N      2.95474   -0.67891   -3.05756
N      0.72063    2.87092    1.23663
N      3.54786    1.70879    0.53624
O      3.32761    3.95923    0.25790
O      0.81495    0.63969    1.72423
H      1.25421   -2.98820   -1.26996
H      1.09886   -1.06333    0.34686
H      2.47352   -2.65647   -3.42328
H      3.31882    1.27179   -2.49813
H      6.13947    2.52059    0.77075
H      5.69271    4.23499    0.97988
H      5.40402    3.07188    2.28505
H     -0.57754    4.17222    2.22243
H      0.46433    3.22310    3.31699
H     -0.89406    2.44009    2.49026
H      3.43391   -0.03927    1.68203
H      4.94343    0.85633    1.86460
H      4.65519   -0.09630    0.39077
H      2.08287    2.36588   -0.74597
H      1.26636    3.61248    0.80285
