28

C      2.18354   -0.74049    3.85668
C      2.14576   -2.13389    3.70581
C      1.48501    0.07256    2.98093
C      0.80781   -0.61716    1.92117
C     -0.55884    1.48855   -0.82853
C     -1.51536    0.28947   -0.74521
C      0.26187    1.39497    0.47287
C     -0.65602   -0.79538   -0.08156
C      1.40517    1.55638    3.26104
C      0.23837   -1.53317   -1.08919
N      1.42071   -2.72283    2.75887
N      0.77057   -1.97231    1.87442
N      0.10214   -0.00145    0.91279
H      2.72950   -0.30031    4.68796
H      2.67894   -2.79969    4.37954
H      0.09487    1.39287   -1.69985
H     -1.07706    2.44745   -0.91032
H     -2.37143    0.52950   -0.10510
H     -1.89523   -0.02131   -1.72203
H      1.31563    1.64393    0.30178
H     -0.13136    2.09015    1.21883
H     -1.25961   -1.53038    0.45481
H      1.85615    2.16912    2.47710
H      0.36628    1.87932    3.37983
H      1.92708    1.77971    4.19541
H      0.86276   -0.83563   -1.65818
H     -0.38495   -2.08753   -1.79992
H      0.88557   -2.24241   -0.57237
