26

C     -2.74032   -0.28094    1.35234
C      0.08942    1.03464   -0.57444
C     -2.92386   -0.35939    2.85782
C     -2.28906    1.65525   -1.18987
C      0.30685    0.03502   -2.89221
C      2.31585    2.59179   -1.99306
C     -1.38791    0.61960   -0.48989
N     -1.70972    0.50068    0.92063
N      0.68349    0.93382   -1.80949
O     -3.48312   -0.88068    0.57076
O      0.66439    1.52927    0.39415
O      2.06597    1.18485   -1.83615
H     -3.91299    0.03159    3.11205
H     -2.89912   -1.41002    3.15879
H     -2.16625    0.19384    3.41950
H     -2.14328    2.64221   -0.74077
H     -3.33219    1.35670   -1.06575
H     -2.06872    1.72634   -2.25927
H      0.61468    0.48423   -3.83916
H     -0.77282   -0.10271   -2.91079
H      0.79741   -0.93903   -2.78155
H      3.40122    2.67619   -2.07737
H      1.96420    3.14313   -1.11740
H      1.83912    2.97041   -2.90490
H     -1.54984   -0.36155   -0.94388
H     -1.05701    0.93669    1.56322
