31

C      2.04877   -1.16327   -0.17981
C      0.67069   -0.99765    0.01445
C      2.38744   -5.91433   -2.65939
C      3.44003   -6.73560   -3.08195
C      2.67900   -2.30225    0.31905
C     -0.05811   -1.96092    0.70866
C      2.43658   -5.31570   -1.40501
C      4.50720   -6.91495   -2.20071
C      1.96481   -3.28736    1.01427
C      0.58600   -3.09952    1.21226
C      3.56183   -5.56648   -0.58789
C      1.62405   -5.62339    1.87337
C      0.47232   -4.99800    2.64613
C      2.66172   -4.53857    1.53748
N      4.57614   -6.35879   -0.98517
N      3.74208   -4.99263    0.66430
O     -0.21265   -4.00772    1.86522
H      2.62123   -0.41668   -0.72301
H      0.16387   -0.11801   -0.37393
H      1.53186   -5.73455   -3.30592
H      3.43625   -7.21757   -4.05457
H      3.73939   -2.46396    0.14699
H     -1.12636   -1.85458    0.87443
H      1.64223   -4.65806   -1.07496
H      5.35280   -7.54304   -2.47915
H      2.08920   -6.41570    2.46960
H      1.23974   -6.08026    0.95678
H     -0.28851   -5.73617    2.90790
H      0.83323   -4.52869    3.57276
H      3.16258   -4.26258    2.47364
H      4.53139   -5.41499    1.13989
