35

C      4.59955   -1.38662   -4.42781
C      2.82415   -1.20719    0.33839
C      0.58247   -0.47303   -0.07525
C      2.67143   -2.29051   -0.72370
C      0.42120   -1.55738   -1.13517
C      5.02926    0.07225   -4.46741
C      2.54177   -3.74028   -4.98559
C      1.66672    0.10241    2.00480
C      1.57779   -2.84621   -2.83234
C      2.84260   -2.96845   -3.69756
N      1.53429   -0.89484    0.95064
N      1.71342   -1.86947   -1.75180
N      3.33216   -1.61592   -3.96807
O      5.34567   -2.28979   -4.81022
H      3.50841   -1.56047    1.11745
H      3.28000   -0.31054   -0.12643
H      0.90530    0.46606   -0.56663
H     -0.38692   -0.28411    0.39899
H      3.64400   -2.46896   -1.19038
H      2.34773   -3.23147   -0.24268
H     -0.02840   -2.45303   -0.66913
H     -0.26275   -1.20495   -1.91474
H      5.97722    0.17418   -3.93254
H      5.20832    0.35683   -5.50820
H      4.29372    0.75738   -4.03633
H      1.79495   -3.20937   -5.58583
H      3.45250   -3.85329   -5.57579
H      2.15318   -4.73723   -4.74823
H      2.35001   -0.26507    2.77726
H      0.69187    0.27925    2.47077
H      2.05322    1.07209    1.63653
H      1.31168   -3.85024   -2.45632
H      0.75149   -2.51223   -3.47097
H      3.62175   -3.51575   -3.15269
H      2.88255   -0.89343   -3.41291
