22   
Generated by ForceBalance from scan.xyz: Frame 1 of 24
C        3.3552395664   -0.7484212119   -0.3554763484
C        2.0100151375   -0.9818961787   -0.0625000212
C        1.5459825832    1.3912699824   -0.4345226655
C        3.8200342255    0.5293473421   -0.6959964614
C        2.8921731359    1.5939848797   -0.7425998363
C        1.1375338232    0.1027075300   -0.1046674640
C        5.2254490668    0.8405047357   -0.9380872182
C        5.5774670424    2.0367598648   -1.4377850482
C        4.4852270662    3.0064336211   -1.8227100067
C        6.9929084332    2.4702111797   -1.6598877525
O        3.2981726001    2.8697643791   -1.0137556874
O        7.1191669327    2.9238113692   -3.0197027979
F       -0.1740266775   -0.1015460923    0.1829456595
H        4.0630640757   -1.5728061314   -0.3125163784
H        1.6391109882   -1.9673129084    0.1988911014
H        0.8399993241    2.2146025541   -0.4575847918
H        5.9765004948    0.0949333589   -0.6833165180
H        4.8049192329    4.0421185463   -1.6890151151
H        4.2117954206    2.8731984467   -2.8791041732
H        7.6713455106    1.6322251254   -1.4531117339
H        7.2453151463    3.2925055431   -0.9709273449
H        8.0622070148    2.9774376584   -3.2372422555
22   
Generated by ForceBalance from scan.xyz: Frame 2 of 24
C        3.3678415991   -0.7516533245   -0.3591781426
C        2.0234038024   -0.9937667671   -0.0692765878
C        1.5466354765    1.3775009874   -0.4329421673
C        3.8260480099    0.5299240974   -0.6941574444
C        2.8921603880    1.5892241283   -0.7379778138
C        1.1443449397    0.0855957556   -0.1086156113
C        5.2299834099    0.8507470254   -0.9330381764
C        5.5770108760    2.0504222888   -1.4280264898
C        4.4792462813    3.0154983120   -1.8092621268
C        6.9910398404    2.4921498950   -1.6495810938
O        3.2914830038    2.8683315477   -1.0032495607
O        7.1211560614    2.9672950657   -3.0037192288
F       -0.1665517085   -0.1272178233    0.1760514093
H        4.0802141890   -1.5722165594   -0.3180001021
H        1.6578480715   -1.9822964123    0.1878348634
H        0.8361900223    2.1970288293   -0.4538977458
H        5.9845512455    0.1082954698   -0.6792063473
H        4.7928022438    4.0523495009   -1.6697538661
H        4.2086454839    2.8861254683   -2.8668742577
H        7.6721885371    1.6555728856   -1.4507396557
H        7.2440589013    3.3087580716   -0.9553242012
H        8.0274990627    2.8044787542   -3.3029050353
22   
Generated by ForceBalance from scan.xyz: Frame 3 of 24
C        3.3836495767   -0.7590863669   -0.3621633359
C        2.0400550817   -1.0087786666   -0.0749565197
C        1.5507063293    1.3618931816   -0.4313409623
C        3.8351693598    0.5261275964   -0.6922016167
C        2.8957051436    1.5807232649   -0.7335639908
C        1.1558418392    0.0664718650   -0.1120645647
C        5.2377378744    0.8554743434   -0.9281784900
C        5.5787530378    2.0588743462   -1.4187274529
C        4.4762774131    3.0191260902   -1.7981409800
C        6.9910569752    2.5095651365   -1.6399899406
O        3.2888000764    2.8628193543   -0.9937020276
O        7.1303922056    3.0068393993   -2.9870285417
F       -0.1542011089   -0.1543668894    0.1700992740
H        4.1002360506   -1.5760750905   -0.3225713923
H        1.6790551308   -1.9999391946    0.1784810514
H        0.8359808174    2.1777805345   -0.4503282988
H        5.9960582152    0.1164923792   -0.6748394623
H        4.7839237809    4.0573506046   -1.6550817987
H        4.2074513484    2.8918638742   -2.8564129629
H        7.6793646271    1.6795498849   -1.4432439799
H        7.2393134854    3.3251791589   -0.9445277415
H        7.9429799917    2.6482552314   -3.3701012961
22   
Generated by ForceBalance from scan.xyz: Frame 4 of 24
C        3.3969429262   -0.7644145654   -0.3664212951
C        2.0541250356   -1.0211331239   -0.0818616657
C        1.5564796451    1.3484960340   -0.4311174485
C        3.8439152480    0.5236619861   -0.6917164726
C        2.9007433955    1.5750531651   -0.7309691767
C        1.1656170878    0.0506621677   -0.1166372308
C        5.2454814167    0.8596593027   -0.9243412424
C        5.5819753712    2.0665187737   -1.4102849578
C        4.4761682386    3.0229685290   -1.7893186734
C        6.9930070400    2.5246102525   -1.6306166019
O        3.2889618617    2.8597212770   -0.9860956162
O        7.1483791700    3.0367362964   -2.9708203900
F       -0.1439453781   -0.1761397078    0.1628804901
H        4.1168994374   -1.5785095799   -0.3282784128
H        1.6969790332   -2.0146316300    0.1678642262
H        0.8384233132    2.1614618483   -0.4481357438
H        6.0067867709    0.1236397771   -0.6708114198
H        4.7794623584    4.0622297276   -1.6441607814
H        4.2083945217    2.8971539297   -2.8480225970
H        7.6915099377    1.7057039660   -1.4255994248
H        7.2305531771    3.3466164102   -0.9409784720
H        7.8182217884    2.5121696134   -3.4304291198
22   
Generated by ForceBalance from scan.xyz: Frame 5 of 24
C        3.4128127540   -0.7741861098   -0.3706846255
C        2.0708349582   -1.0369858592   -0.0880253501
C        1.5634898962    1.3318787120   -0.4294232990
C        3.8547187351    0.5168312212   -0.6914210436
C        2.9071161736    1.5644582107   -0.7274894199
C        1.1779203366    0.0313225793   -0.1197725781
C        5.2549232256    0.8600209793   -0.9214141686
C        5.5870612596    2.0703403735   -1.4026307141
C        4.4766813445    3.0217680328   -1.7808696588
C        6.9966953508    2.5343940367   -1.6243285874
O        3.2905103288    2.8515524669   -0.9776482473
O        7.1698752869    3.0434010320   -2.9623247602
F       -0.1307702044   -0.2018896299    0.1579977951
H        4.1360158772   -1.5854858949   -0.3344624175
H        1.7174509598   -2.0326970025    0.1582030840
H        0.8422134800    2.1420469950   -0.4439631832
H        6.0196155084    0.1273926898   -0.6679372479
H        4.7753857323    4.0621986914   -1.6346389451
H        4.2083742754    2.8967708320   -2.8396030840
H        7.7057568113    1.7291970117   -1.4003833787
H        7.2219248086    3.3720981825   -0.9517812765
H        7.6577671727    2.3882069007   -3.4809982264
22   
Generated by ForceBalance from scan.xyz: Frame 6 of 24
C        3.4111898316   -0.7619465738   -0.3758036933
C        2.0668838793   -1.0221387454   -0.1023553839
C        1.5660938122    1.3479030171   -0.4454129959
C        3.8580622871    0.5283515103   -0.6926860201
C        2.9122692145    1.5775965220   -0.7340167494
C        1.1760740169    0.0478218631   -0.1394608782
C        5.2603878142    0.8689839253   -0.9123712163
C        5.5976940607    2.0794504943   -1.3903803036
C        4.4911223414    3.0329554855   -1.7755492762
C        7.0102660897    2.5402453796   -1.6036273366
O        3.2996268579    2.8642250918   -0.9801323788
O        7.2083069306    3.0492610375   -2.9356345804
F       -0.1347628131   -0.1832096342    0.1291519864
H        4.1324993955   -1.5746915414   -0.3349164990
H        1.7099338682   -2.0172755464    0.1409895753
H        0.8465633996    2.1595485665   -0.4640695967
H        6.0226505925    0.1356341136   -0.6534049097
H        4.7912690646    4.0726755282   -1.6276403782
H        4.2275708590    2.9096997586   -2.8358139967
H        7.7192304357    1.7374202371   -1.3667778293
H        7.2314359767    3.3848154065   -0.9403866722
H        7.4814156089    2.3125892114   -3.5023969484
22   
Generated by ForceBalance from scan.xyz: Frame 7 of 24
C        3.4547824645   -0.8047619780   -0.3682906605
C        2.1147564905   -1.0816438841   -0.0908210398
C        1.5850978442    1.2833890646   -0.4236822577
C        3.8855132434    0.4917438234   -0.6826850669
C        2.9273018049    1.5298639629   -0.7168071090
C        1.2111325805   -0.0220974843   -0.1206791324
C        5.2826134175    0.8499936096   -0.9063002491
C        5.6040892123    2.0664141395   -1.3816507405
C        4.4837909751    3.0060626310   -1.7616920303
C        7.0109944965    2.5375515512   -1.6069792126
O        3.2991092487    2.8217314273   -0.9598795949
O        7.2166812678    2.9974831001   -2.9541050750
F       -0.0956527539   -0.2693125213    0.1521809968
H        4.1857130112   -1.6090881522   -0.3327257592
H        1.7704111951   -2.0817033225    0.1504721414
H        0.8561288084    2.0866670609   -0.4365396818
H        6.0550225827    0.1261967339   -0.6508786029
H        4.7719961419    4.0492060943   -1.6142696047
H        4.2144479203    2.8810276681   -2.8205003922
H        7.7285717327    1.7521295638   -1.3363994658
H        7.2221101422    3.4126064649   -0.9821760604
H        7.2677959030    2.2170517228   -3.5281532207
22   
Generated by ForceBalance from scan.xyz: Frame 8 of 24
C        3.4517953714   -0.7873329937   -0.3844108154
C        2.1101340923   -1.0616338867   -0.1135032488
C        1.5877539052    1.3075439414   -0.4374700491
C        3.8863990381    0.5097983636   -0.6914553819
C        2.9316459829    1.5512431370   -0.7247363553
C        1.2102473203    0.0013284936   -0.1421118592
C        5.2854530131    0.8657506909   -0.9042161331
C        5.6133414541    2.0826926612   -1.3747556753
C        4.4955633589    3.0248243475   -1.7592779195
C        7.0232875111    2.5473215080   -1.5895569700
O        3.3084674582    2.8430203979   -0.9609405525
O        7.2632465630    2.9464711994   -2.9498222497
F       -0.0978575858   -0.2435751248    0.1247587960
H        4.1806894758   -1.5934976136   -0.3492310279
H        1.7617717296   -2.0616530441    0.1221416082
H        0.8608386900    2.1127081098   -0.4491061327
H        6.0550840625    0.1410156532   -0.6433875203
H        4.7862276271    4.0671620065   -1.6115798192
H        4.2261339688    2.9005834994   -2.8185675733
H        7.7317139063    1.7692517735   -1.2737170055
H        7.2268202726    3.4467030324   -0.9986041063
H        7.0929744492    2.1757277511   -3.5151359057
22   
Generated by ForceBalance from scan.xyz: Frame 9 of 24
C        3.5199196869   -0.8451755959   -0.3613994530
C        2.1842471621   -1.1396063343   -0.0827509424
C        1.6248193038    1.2214109389   -0.4012733686
C        3.9334254423    0.4585995046   -0.6699970112
C        2.9630055093    1.4855587985   -0.6965955586
C        1.2680480540   -0.0903858446   -0.1047705847
C        5.3255465318    0.8353400264   -0.8904806508
C        5.6327978531    2.0574465261   -1.3627657733
C        4.4972871688    2.9819974073   -1.7407405476
C        7.0352550077    2.5363253317   -1.5900904704
O        3.3195879594    2.7831369082   -0.9333717537
O        7.2823441799    2.8765627054   -2.9660115416
F       -0.0344022677   -0.3549104942    0.1697907374
H        4.2609368236   -1.6403795313   -0.3312443281
H        1.8523455432   -2.1449048154    0.1541231664
H        0.8860067715    2.0157032981   -0.4075121273
H        6.1076640364    0.1227995393   -0.6338236727
H        4.7730322176    4.0288123535   -1.5959488302
H        4.2191636970    2.8531076704   -2.7976727548
H        7.7499063660    1.7764788179   -1.2446672044
H        7.2280877362    3.4590433924   -1.0324588346
H        6.9074745158    2.1684100693   -3.5140560036
22   
Generated by ForceBalance from scan.xyz: Frame 10 of 24
C        3.5103984274   -0.8316581557   -0.3702138009
C        2.1729112542   -1.1219219692   -0.0966779285
C        1.6230149637    1.2419310206   -0.4147071776
C        3.9289593789    0.4712942703   -0.6760264803
C        2.9628332834    1.5021314897   -0.7053320327
C        1.2608424519   -0.0690614985   -0.1209268401
C        5.3231340245    0.8430483784   -0.8901616153
C        5.6371376548    2.0633759174   -1.3631066745
C        4.5047249050    2.9919103795   -1.7445458382
C        7.0429162153    2.5331147195   -1.5853300047
O        3.3254206435    2.7988544388   -0.9393247304
O        7.3266851114    2.7988734098   -2.9727602259
F       -0.0432976167   -0.3291636253    0.1485763172
H        4.2487406167   -1.6292486635   -0.3382827103
H        1.8365609659   -2.1262696516    0.1379523481
H        0.8868085964    2.0385976859   -0.4225087971
H        6.1017678193    0.1285944032   -0.6287969674
H        4.7842094254    4.0378759384   -1.6002681634
H        4.2247365288    2.8633337355   -2.8016031535
H        7.7469288510    1.7851923364   -1.1958653478
H        7.2279178386    3.4770204400   -1.0607572362
H        6.7754283916    2.2063707878   -3.5074563938
22   
Generated by ForceBalance from scan.xyz: Frame 11 of 24
C        3.5268957374   -0.8474949364   -0.3693170258
C        2.1910628031   -1.1395115269   -0.0899982754
C        1.6353106877    1.2239192220   -0.4009265143
C        3.9421883382    0.4564676145   -0.6754808777
C        2.9734322277    1.4848312701   -0.6982419182
C        1.2769199551   -0.0882157004   -0.1076144560
C        5.3348152522    0.8317714684   -0.8927848198
C        5.6452077840    2.0518811875   -1.3688028997
C        4.5062990055    2.9753040220   -1.7467722076
C        7.0495030984    2.5268021724   -1.5884484606
O        3.3335341599    2.7824445330   -0.9330897606
O        7.3707675082    2.7137016996   -2.9828275643
F       -0.0252215389   -0.3509421112    0.1681037793
H        4.2664524249   -1.6440811932   -0.3420366496
H        1.8572722287   -2.1447249799    0.1445495713
H        0.8980894012    2.0197079826   -0.4037287340
H        6.1159320143    0.1206106410   -0.6305004623
H        4.7836509584    4.0227244579   -1.6084208548
H        4.2165724337    2.8415775545   -2.8012991625
H        7.7538933972    1.8068827618   -1.1527945047
H        7.2104228131    3.4954985018   -1.1002956906
H        6.6920745843    2.2701941802   -3.5132916709
22   
Generated by ForceBalance from scan.xyz: Frame 12 of 24
C        3.5021040119   -0.8307466483   -0.3691007300
C        2.1626991223   -1.1131738532   -0.0970112042
C        1.6234708709    1.2521200486   -0.4196018585
C        3.9272714842    0.4695893890   -0.6771172623
C        2.9648966027    1.5033954872   -0.7095193415
C        1.2548454107   -0.0567002837   -0.1238615499
C        5.3234115302    0.8351880732   -0.8878839687
C        5.6449846300    2.0510797225   -1.3666238335
C        4.5133927026    2.9809640357   -1.7524335918
C        7.0536957149    2.5197268166   -1.5738732962
O        3.3346435531    2.7984527670   -0.9464626931
O        7.4133315268    2.6634984130   -2.9648161202
F       -0.0505737687   -0.3103798210    0.1446694828
H        4.2364730291   -1.6318229032   -0.3346739984
H        1.8213301988   -2.1155058580    0.1389293940
H        0.8912900747    2.0524760354   -0.4297662903
H        6.0982556821    0.1196201592   -0.6194580782
H        4.7966013060    4.0271126476   -1.6143473249
H        4.2274170008    2.8467766550   -2.8086349157
H        7.7513136963    1.8087881642   -1.1169240724
H        7.2025486805    3.4960235723   -1.0938589932
H        6.6508213900    2.4216882153   -3.5103257979
22   
Generated by ForceBalance from scan.xyz: Frame 13 of 24
C        3.5033777145   -0.8390612785   -0.3552651697
C        2.1637490995   -1.1197325364   -0.0821738114
C        1.6259164465    1.2440686999   -0.4179462171
C        3.9292974330    0.4594190992   -0.6699764579
C        2.9674471406    1.4931140226   -0.7086378173
C        1.2565041689   -0.0629959395   -0.1151451580
C        5.3255593273    0.8232728699   -0.8832890243
C        5.6489761434    2.0359016243   -1.3683444578
C        4.5174305506    2.9639535934   -1.7580773862
C        7.0588937623    2.5038011290   -1.5758653989
O        3.3382515453    2.7871586852   -0.9524940885
O        7.4394074431    2.6119725491   -2.9640381400
F       -0.0492307228   -0.3144674699    0.1541870698
H        4.2374251825   -1.6402150578   -0.3165490405
H        1.8219001277   -2.1206943538    0.1588932314
H        0.8940588875    2.0446384742   -0.4328488363
H        6.0995517107    0.1079598022   -0.6121047986
H        4.8004518731    4.0111232788   -1.6246892692
H        4.2312806650    2.8235274170   -2.8139904621
H        7.7583307315    1.8036406266   -1.1090672333
H        7.1976291230    3.4867700182   -1.1030433310
H        6.6424568003    2.5881423805   -3.5134053328
22   
Generated by ForceBalance from scan.xyz: Frame 14 of 24
C        3.4434070799   -0.8456401233   -0.3876412029
C        2.1020866649   -1.0925989805   -0.0909097034
C        1.6274905629    1.2927020877   -0.3606173612
C        3.9014155203    0.4465326656   -0.6822615824
C        2.9693884370    1.5077102800   -0.6756780967
C        1.2259085782   -0.0096053457   -0.0791404153
C        5.3029636176    0.7744225407   -0.9193648196
C        5.6509591601    1.9878856697   -1.3841599708
C        4.5390241737    2.9559768270   -1.7268752423
C        7.0703518308    2.4201832729   -1.6115275100
O        3.3730904635    2.7958984561   -0.8993181343
O        7.4280057055    2.5534559712   -3.0023533066
F       -0.0806345625   -0.2289862917    0.2139477957
H        4.1535569200   -1.6689453313   -0.3840434290
H        1.7357906365   -2.0884911235    0.1347666443
H        0.9199204925    2.1147481295   -0.3411780705
H        6.0610020393    0.0304428913   -0.6825562864
H        4.8543661933    3.9919907944   -1.5759558035
H        4.2268389279    2.8460664413   -2.7791892796
H        7.7609888987    1.6837678013   -1.1932317979
H        7.2490941369    3.3799391886   -1.1031593055
H        6.6415231998    2.8036033155   -3.5098234237
22   
Generated by ForceBalance from scan.xyz: Frame 15 of 24
C        3.4194970056   -0.8359764200   -0.3676416302
C        2.0750476199   -1.0722711593   -0.0756225684
C        1.6161089393    1.3105193185   -0.3823107130
C        3.8865944420    0.4493278949   -0.6773595037
C        2.9608182144    1.5156327476   -0.6917875252
C        1.2043301743    0.0149320626   -0.0846976205
C        5.2914605637    0.7655907565   -0.9121977045
C        5.6490164772    1.9708918912   -1.3894327010
C        4.5459343840    2.9409440514   -1.7508707893
C        7.0722206564    2.3963009011   -1.6115121163
O        3.3723248608    2.7989773613   -0.9311800667
O        7.4223564659    2.5761758894   -2.9967640650
F       -0.1055606301   -0.1929743522    0.2030453207
H        4.1251339396   -1.6629478984   -0.3483871970
H        1.7023970860   -2.0631068309    0.1616138944
H        0.9127997015    2.1363880450   -0.3794039861
H        6.0433083555    0.0188158355   -0.6645137532
H        4.8650746455    3.9777756502   -1.6090151629
H        4.2444437312    2.8181053107   -2.8045989250
H        7.7578068304    1.6339538778   -1.2356052970
H        7.2681091440    3.3294622646   -1.0599511726
H        6.7168344904    3.0722853859   -3.4396262478
22   
Generated by ForceBalance from scan.xyz: Frame 16 of 24
C        3.4331792527   -0.8559953288   -0.3279476983
C        2.0903375702   -1.0942863619   -0.0295217159
C        1.6166798895    1.2799523616   -0.3847041329
C        3.8914301408    0.4258133487   -0.6636863055
C        2.9600704820    1.4866171948   -0.6985101157
C        1.2140486951   -0.0121978368   -0.0605158668
C        5.2938915976    0.7439621072   -0.9112145994
C        5.6446773634    1.9426342045   -1.4082873940
C        4.5391636966    2.9037917408   -1.7813016524
C        7.0647900271    2.3709411887   -1.6475827468
O        3.3633489817    2.7677298617   -0.9636196328
O        7.3657736648    2.6370938354   -3.0289655809
F       -0.0945739525   -0.2219126134    0.2324677207
H        4.1438126970   -1.6782146020   -0.2934262917
H        1.7236239312   -2.0822437974    0.2281773123
H        0.9081840451    2.1013089440   -0.3983317160
H        6.0492435994    0.0016584831   -0.6603991480
H        4.8526322972    3.9442509696   -1.6483979810
H        4.2466827690    2.7676488129   -2.8351073444
H        7.7522773858    1.5768294906   -1.3493283553
H        7.2932179523    3.2607132663   -1.0397328752
H        6.7877210410    3.3489249661   -3.3447336567
22   
Generated by ForceBalance from scan.xyz: Frame 17 of 24
C        3.4049075269   -0.8381655935   -0.3128614706
C        2.0583211499   -1.0658036638   -0.0225473800
C        1.6014554143    1.3061946353   -0.4090950545
C        3.8740414692    0.4367113945   -0.6593301681
C        2.9486797725    1.5020987230   -0.7138602122
C        1.1882702926    0.0204353764   -0.0731509678
C        5.2803909958    0.7431523341   -0.9004208016
C        5.6403775516    1.9354921724   -1.4054381568
C        4.5462834768    2.9010383005   -1.7964375804
C        7.0641796108    2.3515522916   -1.6443138723
O        3.3602062259    2.7777722917   -0.9905424652
O        7.3410989880    2.6632132448   -3.0215436829
F       -0.1241320334   -0.1784340393    0.2115875763
H        4.1102998382   -1.6641540886   -0.2635775920
H        1.6841259747   -2.0487845919    0.2432893321
H        0.8978220662    2.1313161110   -0.4383751270
H        6.0293945406   -0.0027602243   -0.6408902177
H        4.8637617468    3.9407604705   -1.6662377760
H        4.2688570157    2.7603310464   -2.8528149244
H        7.7404780829    1.5339369218   -1.3851299681
H        7.3187426515    3.2122543270   -1.0068756191
H        6.9533107797    3.5269159995   -3.2302250403
22   
Generated by ForceBalance from scan.xyz: Frame 18 of 24
C        3.3867975607   -0.8246542653   -0.3034648323
C        2.0383971490   -1.0447994804   -0.0152706459
C        1.5913172191    1.3248642751   -0.4248679528
C        3.8623812339    0.4449791448   -0.6598328016
C        2.9405204294    1.5128621515   -0.7266300840
C        1.1722690702    0.0438294396   -0.0785256228
C        5.2704829873    0.7437490870   -0.9006728062
C        5.6354030338    1.9313423982   -1.4130320479
C        4.5481109313    2.8993438070   -1.8144878344
C        7.0599955194    2.3407003266   -1.6542690093
O        3.3567520654    2.7841685705   -1.0135653266
O        7.3068633105    2.6898810986   -3.0294909319
F       -0.1419661080   -0.1477722910    0.2038178715
H        4.0887875602   -1.6529356738   -0.2447920890
H        1.6598709141   -2.0240382221    0.2581325829
H        0.8908887257    2.1523129177   -0.4642662441
H        6.0160304823   -0.0042633145   -0.6369553210
H        4.8687867005    3.9381829816   -1.6878175294
H        4.2786620623    2.7553626247   -2.8716425499
H        7.7303477883    1.5091365390   -1.4220015186
H        7.3311101424    3.1808420152   -0.9978106425
H        7.1407869723    3.6369554674   -3.1458187635
22   
Generated by ForceBalance from scan.xyz: Frame 19 of 24
C        3.3630634748   -0.7926147623   -0.3153255833
C        2.0137666108   -1.0058377072   -0.0261791694
C        1.5771270415    1.3659433013   -0.4391526891
C        3.8434721734    0.4746494854   -0.6736724576
C        2.9271186197    1.5474425561   -0.7419131338
C        1.1531673204    0.0871436989   -0.0907664340
C        5.2526782821    0.7671645395   -0.9153539172
C        5.6235165753    1.9526516998   -1.4284926260
C        4.5412097224    2.9238731507   -1.8342515052
C        7.0483227585    2.3553713144   -1.6708112464
O        3.3494413687    2.8156713928   -1.0310944946
O        7.2682258011    2.7153864669   -3.0496000812
F       -0.1618590832   -0.0981212694    0.1926441298
H        4.0613861613   -1.6239750337   -0.2558983765
H        1.6305431945   -1.9828086768    0.2488193429
H        0.8803372009    2.1964219480   -0.4795501671
H        5.9948368430    0.0160084721   -0.6511349309
H        4.8668027100    3.9612027156   -1.7129467216
H        4.2719098114    2.7766577391   -2.8904240630
H        7.7171835896    1.5210237066   -1.4384657973
H        7.3215754841    3.1939367064   -1.0143219650
H        7.3380818218    3.6783689441   -3.1152057629
22   
Generated by ForceBalance from scan.xyz: Frame 20 of 24
C        3.3529243271   -0.7797783147   -0.3207437366
C        2.0044643565   -0.9922338419   -0.0272983946
C        1.5713027766    1.3803952733   -0.4404224440
C        3.8345921706    0.4864837405   -0.6811177028
C        2.9204168628    1.5616264364   -0.7477947774
C        1.1460641776    0.1025735688   -0.0900777895
C        5.2439010825    0.7757624963   -0.9257701261
C        5.6125074447    1.9611476418   -1.4409371227
C        4.5321136301    2.9337180760   -1.8482239053
C        7.0353043481    2.3663107365   -1.6805531992
O        3.3433728198    2.8287308938   -1.0390455695
O        7.2248631803    2.7523101519   -3.0573290500
F       -0.1685555483   -0.0801856934    0.1972409687
H        4.0503962821   -1.6119758288   -0.2629147978
H        1.6207246698   -1.9685731223    0.2492809863
H        0.8753452096    2.2116200384   -0.4791892895
H        5.9860601778    0.0244117076   -0.6619457577
H        4.8603417182    3.9703386761   -1.7335242931
H        4.2589956330    2.7823580126   -2.9023602958
H        7.7081390392    1.5319021569   -1.4537278759
H        7.3015896489    3.2005564990   -1.0157162141
H        7.5252414501    3.6714178179   -3.0873438054
22   
Generated by ForceBalance from scan.xyz: Frame 21 of 24
C        3.3473645977   -0.7740100049   -0.3270526907
C        1.9995961186   -0.9857258485   -0.0298237648
C        1.5656566802    1.3874320415   -0.4366406594
C        3.8283669059    0.4927030096   -0.6865665379
C        2.9140096459    1.5681938246   -0.7481856064
C        1.1409324254    0.1092062416   -0.0874374292
C        5.2370396889    0.7825697551   -0.9340240438
C        5.6041808446    1.9686430265   -1.4485983515
C        4.5222505064    2.9404813073   -1.8537890693
C        7.0248751003    2.3789690102   -1.6834340758
O        3.3366838532    2.8350741967   -1.0387245867
O        7.1880342444    2.7839651179   -3.0571797851
F       -0.1728583129   -0.0738751412    0.2038634125
H        4.0445385309   -1.6067166455   -0.2728407137
H        1.6162674596   -1.9623956634    0.2460943512
H        0.8701100457    2.2191760139   -0.4716747751
H        5.9799159407    0.0315327049   -0.6715785730
H        4.8514133645    3.9766451535   -1.7432530429
H        4.2446222967    2.7870075258   -2.9061865101
H        7.7038836571    1.5478722160   -1.4564669278
H        7.2790862223    3.2140658428   -1.0139691945
H        7.7002969218    3.6047586401   -3.0813109601
22   
Generated by ForceBalance from scan.xyz: Frame 22 of 24
C        3.3288587806   -0.7476026968   -0.3409409410
C        1.9798670559   -0.9547984004   -0.0458906475
C        1.5564273042    1.4206622246   -0.4458366867
C        3.8156883594    0.5180548266   -0.6962096510
C        2.9057868809    1.5974673407   -0.7557927798
C        1.1252854129    0.1434624618   -0.1008861504
C        5.2260145030    0.8033287920   -0.9396864970
C        5.5985782996    1.9889462251   -1.4510921669
C        4.5209996431    2.9659863793   -1.8562294960
C        7.0203933733    2.3988769718   -1.6738602055
O        3.3337957639    2.8631015591   -1.0424500615
O        7.1742693081    2.8146125890   -3.0435746920
F       -0.1896344251   -0.0350969713    0.1884917996
H        4.0225729228   -1.5832910275   -0.2881796340
H        1.5924254427   -1.9307747817    0.2266649721
H        0.8644344795    2.2554120070   -0.4791439444
H        5.9654141784    0.0494965389   -0.6756639412
H        4.8549780013    4.0000365444   -1.7444367325
H        4.2435380818    2.8150516313   -2.9089896506
H        7.6980073846    1.5664887158   -1.4426549212
H        7.2661861994    3.2341019498   -0.9998647753
H        7.8710679384    3.4863479307   -3.0849080407
22   
Generated by ForceBalance from scan.xyz: Frame 23 of 24
C        3.3400464291   -0.7531268231   -0.3452756733
C        1.9932854077   -0.9714263218   -0.0481603935
C        1.5535512325    1.4040907081   -0.4359149408
C        3.8178261869    0.5173598532   -0.6955266528
C        2.9009988927    1.5912830978   -0.7481312070
C        1.1323161485    0.1221754015   -0.0962593865
C        5.2257666524    0.8126794290   -0.9411607418
C        5.5892425219    2.0027737312   -1.4483929356
C        4.5048448007    2.9756225813   -1.8456376956
C        7.0078467348    2.4214825295   -1.6729835391
O        3.3202486263    2.8608305325   -1.0293939049
O        7.1434052131    2.8446319059   -3.0410251543
F       -0.1807113843   -0.0663002635    0.1951800783
H        4.0395156886   -1.5843372157   -0.2980708200
H        1.6127398281   -1.9511880174    0.2205909091
H        0.8558866146    2.2343302779   -0.4635326408
H        5.9703138071    0.0623299755   -0.6818591910
H        4.8330525842    4.0107854839   -1.7294043591
H        4.2256661499    2.8281958165   -2.8984905990
H        7.6886042956    1.5897499609   -1.4464954392
H        7.2524177548    3.2570790797   -0.9976859789
H        7.9769188698    3.3324408009   -3.1271883940
22   
Generated by ForceBalance from scan.xyz: Frame 24 of 24
C        3.3263733897   -0.7275982769   -0.3576635798
C        1.9777622597   -0.9440917632   -0.0674196846
C        1.5427447396    1.4331867593   -0.4485563813
C        3.8071030024    0.5434458080   -0.7013488592
C        2.8919318206    1.6189504452   -0.7540700229
C        1.1183183109    0.1506440234   -0.1154024122
C        5.2166736876    0.8374684769   -0.9393460827
C        5.5842116309    2.0285185257   -1.4408223919
C        4.5037521507    3.0064078290   -1.8371072406
C        7.0047590505    2.4456511490   -1.6570098922
O        3.3138391286    2.8887388988   -1.0288905835
O        7.1434404298    2.8762574708   -3.0221827912
F       -0.1963047964   -0.0371041132    0.1695412092
H        4.0242543192   -1.5601538268   -0.3100731364
H        1.5945527819   -1.9241656415    0.1962945039
H        0.8464984114    2.2646325616   -0.4761729330
H        5.9585952406    0.0848238663   -0.6790198600
H        4.8337009054    4.0398746188   -1.7119249231
H        4.2302429277    2.8664533768   -2.8925414166
H        7.6781069903    1.6073716396   -1.4328281678
H        7.2536894359    3.2765650014   -0.9769409599
H        8.0641839142    3.1467187242   -3.1626247530
