18   
Generated by ForceBalance from scan.xyz: Frame 1 of 24
C        5.9271807539    0.9497102100    0.7789533966
C        4.7760221523    1.5534514032    1.2941243620
C        5.8083342938   -0.0075790000   -0.2348361688
C        3.5162494581    1.2002997770    0.7992878906
C        4.5475560575   -0.3572874567   -0.7256810210
C        3.3853545373    0.2426766986   -0.2167114385
C        2.0208985727   -0.1753748195   -0.7205176663
C        1.5256250540   -1.4248516818    0.0059077955
F        0.4438276610   -1.9888674994   -0.6937529097
H        6.9073401313    1.2250065378    1.1595949530
H        4.8584678654    2.3013743897    2.0787054977
H        6.6980102410   -0.4781146051   -0.6457385902
H        2.6253754065    1.6782269000    1.2020018431
H        4.4644334370   -1.0984831059   -1.5183867805
H        2.0742881715   -0.4163906114   -1.7876338691
H        1.2923127139    0.6325909972   -0.6041570787
H        1.1849330008   -1.2021578921    1.0219907981
H        2.3097703702   -2.1871365744    0.0492235524
18   
Generated by ForceBalance from scan.xyz: Frame 2 of 24
C        5.9380918333    0.9449422565    0.7537345935
C        4.7993990648    1.5571780053    1.2855514406
C        5.7980968726   -0.0126275444   -0.2575085033
C        3.5301042433    1.2118332479    0.8088252794
C        4.5282204697   -0.3545556281   -0.7292983585
C        3.3776220496    0.2536312393   -0.2033127933
C        2.0035335500   -0.1549671296   -0.6887381480
C        1.5081090360   -1.4304100195    0.0035350029
F        0.6576490416   -2.1472393539   -0.8585938524
H        6.9256621864    1.2136824093    1.1195925691
H        4.8983010026    2.3049981620    2.0683718986
H        6.6785379826   -0.4891242861   -0.6812834146
H        2.6486280525    1.6965866378    1.2238322306
H        4.4282708091   -1.0970656894   -1.5188053701
H        2.0464796715   -0.3773336604   -1.7601542843
H        1.2814656861    0.6559572786   -0.5558616816
H        0.9492562291   -1.2193933986    0.9202991927
H        2.3455956266   -2.0940347658    0.2379521905
18   
Generated by ForceBalance from scan.xyz: Frame 3 of 24
C        5.9323341652    0.9235030207    0.7152585413
C        4.8083434685    1.5576189526    1.2518117606
C        5.7672712381   -0.0531016948   -0.2742546217
C        3.5281058170    1.2154711070    0.8014273744
C        4.4873042394   -0.3913585125   -0.7196990613
C        3.3505995520    0.2386034010   -0.1877834803
C        1.9663458163   -0.1643120779   -0.6487572804
C        1.4905493927   -1.4883078360   -0.0240340393
F        0.9099270166   -2.3089041709   -1.0102379780
H        6.9280301265    1.1890987827    1.0608396661
H        4.9263807217    2.3196092100    2.0181690936
H        6.6364331097   -0.5469361166   -0.7015199475
H        2.6581333256    1.7166815417    1.2210577132
H        4.3674543645   -1.1491906505   -1.4916635114
H        1.9748401126   -0.3210592849   -1.7323043708
H        1.2463541307    0.6343610784   -0.4488748559
H        0.7378621834   -1.3367308629    0.7550608698
H        2.3308454686   -2.0506545975    0.3920425479
18   
Generated by ForceBalance from scan.xyz: Frame 4 of 24
C        5.9539695669    0.9254185092    0.6949489556
C        4.8515662754    1.5956721288    1.2317521370
C        5.7534739797   -0.0741798890   -0.2649104460
C        3.5572209344    1.2671849346    0.8114608508
C        4.4603015860   -0.3980921364   -0.6811608784
C        3.3446808289    0.2682043506   -0.1475637000
C        1.9464875286   -0.1161796991   -0.5814138132
C        1.4932431206   -1.4905084767   -0.0509016415
F        1.1969637817   -2.3535505010   -1.1247701163
H        6.9601312098    1.1797543212    1.0180055238
H        4.9968070101    2.3748350054    1.9758650014
H        6.6057092201   -0.5972438045   -0.6915647522
H        2.7044930197    1.7955311426    1.2331692095
H        4.3120711283   -1.1744086757   -1.4293512157
H        1.8942904459   -0.1703707365   -1.6736236211
H        1.2365714789    0.6566384299   -0.2722087070
H        0.5835121112   -1.4183290832    0.5520913960
H        2.2779053527   -1.9748676721    0.5359145133
18   
Generated by ForceBalance from scan.xyz: Frame 5 of 24
C        5.7082211863    1.3604593766    0.9206146033
C        4.5171172038    2.0900999856    0.8825048210
C        5.7505623738    0.0802099773    0.3550099424
C        3.3758510741    1.5431992603    0.2837125334
C        4.6106401843   -0.4616541577   -0.2427884873
C        3.4077412274    0.2633399651   -0.2847801798
C        2.1712050446   -0.3465081847   -0.9092578246
C        1.6463238136   -1.5873027871   -0.1694999493
F        1.9630628075   -2.7554179820   -0.8932181417
H        6.5954426730    1.7837752956    1.3844416253
H        4.4739729690    3.0853027697    1.3179534880
H        6.6737711456   -0.4935266260    0.3772428431
H        2.4529110130    2.1192033289    0.2590055239
H        4.6499239670   -1.4565444099   -0.6815479714
H        2.3642409983   -0.6484487226   -1.9441322517
H        1.3788012599    0.4079425017   -0.9484711103
H        0.5557519991   -1.5704787263   -0.0826659619
H        2.0893269691   -1.6921689889    0.8241834512
18   
Generated by ForceBalance from scan.xyz: Frame 6 of 24
C        5.7222168702    1.3466570116    0.9070003502
C        4.5307860203    2.0770122530    0.8965389178
C        5.7574291544    0.0758116380    0.3206744303
C        3.3826908826    1.5383637203    0.3040333695
C        4.6102986429   -0.4577156150   -0.2715248939
C        3.4068963011    0.2675115679   -0.2857614909
C        2.1589367691   -0.3300495629   -0.8990917894
C        1.6343982225   -1.5637026042   -0.1611814033
F        2.2172292723   -2.7319143580   -0.6942284440
H        6.6154772243    1.7629021152    1.3656683886
H        4.4931843273    3.0654888059    1.3476188173
H        6.6807079735   -0.4982940398    0.3231819937
H        2.4595902057    2.1147374930    0.3002423454
H        4.6423383576   -1.4461040122   -0.7234872754
H        2.3251136615   -0.6180264480   -1.9430168260
H        1.3650411604    0.4252263274   -0.9053637751
H        0.5539134529   -1.6746293431   -0.2977952722
H        1.8698360602   -1.5376722870    0.9062647360
18   
Generated by ForceBalance from scan.xyz: Frame 7 of 24
C        5.7404583792    1.3412259728    0.8902748116
C        4.5183935893    2.0168996985    0.9558687773
C        5.8146796446    0.1132894243    0.2228447216
C        3.3799878359    1.4655964164    0.3578702023
C        4.6757153819   -0.4338317667   -0.3737172066
C        3.4432849564    0.2360813699   -0.3131399341
C        2.2019214411   -0.3755737871   -0.9244510890
C        1.6224345994   -1.5273429319   -0.1083751427
F        2.4134184435   -2.6811861331   -0.2665428353
H        6.6272549315    1.7679270742    1.3519281120
H        4.4507995991    2.9733145758    1.4683957521
H        6.7613823565   -0.4183477302    0.1669907772
H        2.4335588407    2.0005588874    0.4104571455
H        4.7377897543   -1.3908954680   -0.8847215858
H        2.4012588345   -0.7466261535   -1.9359308813
H        1.4202204094    0.3880138017   -1.0144299753
H        0.6172942840   -1.7877708148   -0.4566333792
H        1.5947859267   -1.2949868940    0.9604628644
18   
Generated by ForceBalance from scan.xyz: Frame 8 of 24
C        5.7497305287    1.3263115212    0.8939916026
C        4.5136193438    1.9690101060    1.0116408209
C        5.8404716839    0.1326342251    0.1693441120
C        3.3786554529    1.4187639661    0.4070341958
C        4.7037638584   -0.4137921777   -0.4322655139
C        3.4587005862    0.2232763607   -0.3217880780
C        2.2214580580   -0.3844672521   -0.9447745762
C        1.5916845314   -1.4856668458   -0.0967521244
F        2.5037544661   -2.5353283093    0.1040350605
H        6.6345867424    1.7523071079    1.3600187573
H        4.4330967022    2.8990432186    1.5688883007
H        6.7977582587   -0.3737786970    0.0739969207
H        2.4211602025    1.9284164939    0.4986443338
H        4.7791424233   -1.3460016577   -0.9857469626
H        2.4592404673   -0.8014479382   -1.9299089000
H        1.4548056771    0.3839859339   -1.0998634853
H        0.7122545992   -1.9107748598   -0.5919642373
H        1.3122474095   -1.1130044425    0.8941148850
18   
Generated by ForceBalance from scan.xyz: Frame 9 of 24
C        5.7593792405    1.3018085359    0.8613028047
C        4.5245107272    1.9379692764    1.0190782185
C        5.8357355709    0.1226524916    0.1114883174
C        3.3770550893    1.3972657377    0.4295482112
C        4.6873514708   -0.4151005678   -0.4749134441
C        3.4444353026    0.2167556883   -0.3240322277
C        2.1978647279   -0.3771052041   -0.9421424180
C        1.5490464333   -1.4727272564   -0.0914004198
F        2.5106333967   -2.3673365514    0.4014228558
H        6.6536541221    1.7209069883    1.3155100185
H        4.4544192492    2.8565402564    1.5963462951
H        6.7916170855   -0.3794570149   -0.0152089015
H        2.4205059545    1.9020344592    0.5527975033
H        4.7530275013   -1.3365526414   -1.0477722962
H        2.4474631622   -0.7962490970   -1.9236039148
H        1.4405521200    0.3968209368   -1.1113707566
H        0.8261893866   -2.0525610635   -0.6742287814
H        1.0502204331   -1.0426048458    0.7837664625
18   
Generated by ForceBalance from scan.xyz: Frame 10 of 24
C        5.7723030710    1.2836520550    0.8612619681
C        4.5336808196    1.9032350824    1.0528220101
C        5.8512697152    0.1267238842    0.0780823736
C        3.3844924075    1.3671116342    0.4628329418
C        4.6996082262   -0.4048903728   -0.5076067136
C        3.4526901357    0.2088792008   -0.3240473040
C        2.2047455529   -0.3802310262   -0.9454674541
C        1.5315815497   -1.4659799004   -0.0849365281
F        2.4658241912   -2.1588460470    0.6972681055
H        6.6681986843    1.6988814668    1.3157700614
H        4.4622150741    2.8043514395    1.6568665223
H        6.8102666059   -0.3618408237   -0.0753852484
H        2.4246268304    1.8578992823    0.6130964975
H        4.7676901652   -1.3089261041   -1.1080853877
H        2.4708406992   -0.8118753922   -1.9164949563
H        1.4624681654    0.4010452669   -1.1405099834
H        1.0069419726   -2.2004412801   -0.7036953041
H        0.8230704015   -1.0170405642    0.6190964810
18   
Generated by ForceBalance from scan.xyz: Frame 11 of 24
C        5.7845441522    1.2680521604    0.8547605630
C        4.5463154973    1.8799801716    1.0725316890
C        5.8574292350    0.1266630500    0.0488222987
C        3.3916504419    1.3515640964    0.4867835246
C        4.7000869197   -0.3969726889   -0.5331306983
C        3.4537149769    0.2087639302   -0.3222342007
C        2.2000519646   -0.3717134091   -0.9412941261
C        1.5214674479   -1.4694737280   -0.0843577037
F        2.3690072426   -1.9466986120    0.9242947225
H        6.6845509627    1.6774794164    1.3063782015
H        4.4794305831    2.7689610819    1.6948112437
H        6.8160472296   -0.3552929462   -0.1264236927
H        2.4319086499    1.8347923717    0.6597149115
H        4.7646955366   -1.2877253791   -1.1542032320
H        2.4588908771   -0.7928165851   -1.9181915189
H        1.4700568546    0.4226470869   -1.1256419989
H        1.2269703560   -2.3292205724   -0.6934412403
H        0.6368484378   -1.0752026253    0.4255458286
18   
Generated by ForceBalance from scan.xyz: Frame 12 of 24
C        5.8032142946    1.2505226749    0.8548673245
C        4.5638914128    1.8503421215    1.1001997243
C        5.8725264114    0.1253747580    0.0266425591
C        3.4044936312    1.3264812071    0.5206819258
C        4.7098277559   -0.3935157449   -0.5498340539
C        3.4626804524    0.1999605205   -0.3108505345
C        2.2031703412   -0.3749275138   -0.9238299092
C        1.5242921683   -1.4759858966   -0.0646536923
F        2.2230507484   -1.7218552418    1.1246199358
H        6.7064382367    1.6571383023    1.3025824043
H        4.5000517482    2.7263374039    1.7409248652
H        6.8316367311   -0.3467792556   -0.1712405659
H        2.4439914436    1.7983686214    0.7177697878
H        4.7722953968   -1.2701264496   -1.1914819842
H        2.4414334549   -0.7920049652   -1.9072033808
H        1.4853365494    0.4336985252   -1.0920455777
H        1.4791742039   -2.4277698772   -0.6023429753
H        0.5101669830   -1.1843061536    0.2243185060
18   
Generated by ForceBalance from scan.xyz: Frame 13 of 24
C        5.8322587828    1.1960772726    0.8771931116
C        4.5749620285    1.7369615782    1.1680812270
C        5.9330363302    0.1335859393   -0.0259643870
C        3.4295375148    1.2174949444    0.5597546463
C        4.7828505941   -0.3816871202   -0.6322440052
C        3.5189514571    0.1530446613   -0.3481116545
C        2.2734113064   -0.4161489468   -0.9935244940
C        1.5606196190   -1.5010702675   -0.1480730381
F        2.0059614458   -1.5081190586    1.1806242459
H        6.7243723098    1.6006269189    1.3484540385
H        4.4871999439    2.5634306190    1.8689318608
H        6.9055420619   -0.2919250006   -0.2608295282
H        2.4553299445    1.6401106088    0.7955065452
H        4.8700975089   -1.2075606358   -1.3356727523
H        2.5197198791   -0.8460388741   -1.9693758044
H        1.5737793461    0.4051139024   -1.1802634742
H        1.7685763691   -2.5009860767   -0.5416237616
H        0.4779686317   -1.3456071139   -0.1257453618
18   
Generated by ForceBalance from scan.xyz: Frame 14 of 24
C        5.8465644797    1.2279008714    0.8238270505
C        4.6041695138    1.7714041216    1.1693101876
C        5.9040956771    0.1482517359   -0.0625120441
C        3.4299114154    1.2381458757    0.6322041423
C        4.7252448462   -0.3806899179   -0.5981255087
C        3.4757759003    0.1568424429   -0.2589608666
C        2.2005450994   -0.4294795558   -0.8250193445
C        1.5469843787   -1.4928453753    0.0778173882
F        1.8091334786   -1.2526598620    1.4335410751
H        6.7605628836    1.6437230409    1.2401509221
H        4.5504428238    2.6104807197    1.8584960405
H        6.8644587758   -0.2791944678   -0.3399576402
H        2.4677880941    1.6606418721    0.9119727725
H        4.7786953799   -1.2184549879   -1.2910022494
H        2.3844280795   -0.8872565923   -1.8027669342
H        1.4862836863    0.3850813568   -0.9874828114
H        1.9559320521   -2.4858506302   -0.1364287364
H        0.4605478814   -1.5160704722   -0.0511771151
18   
Generated by ForceBalance from scan.xyz: Frame 15 of 24
C        5.8351260067    1.1874093269    0.8239211646
C        4.5926581466    1.7209956519    1.1844643405
C        5.8938422959    0.1386825859   -0.0987270077
C        3.4181022697    1.2096013434    0.6268721284
C        4.7145440618   -0.3681591971   -0.6544741807
C        3.4642601039    0.1593256113   -0.3011542814
C        2.1910711218   -0.4098847506   -0.8880000596
C        1.5219049450   -1.4630680510   -0.0004015924
F        1.4839826871   -1.0457135596    1.3384355537
H        6.7486293337    1.5871900089    1.2567104209
H        4.5388862385    2.5356395130    1.9023606333
H        6.8540489540   -0.2807461048   -0.3887251637
H        2.4560830375    1.6225834834    0.9193177757
H        4.7684278908   -1.1808847438   -1.3765847756
H        2.3846431847   -0.8767363895   -1.8604390250
H        1.4795849140    0.4051432294   -1.0627350934
H        2.0885238636   -2.4002878582   -0.0146457196
H        0.4917858982   -1.6552123467   -0.3172653768
18   
Generated by ForceBalance from scan.xyz: Frame 16 of 24
C        5.8458070581    1.1610833374    0.8258320704
C        4.6068109590    1.6790150404    1.2193588910
C        5.8945681839    0.1412036063   -0.1293269323
C        3.4263063971    1.1803745325    0.6622398478
C        4.7103449417   -0.3542474195   -0.6848627361
C        3.4635428098    0.1580893692   -0.2978717965
C        2.1847446414   -0.4052650301   -0.8771491952
C        1.5168965334   -1.4439850923    0.0191930699
F        1.1868605122   -0.8816402887    1.2636976423
H        6.7640780000    1.5507067262    1.2578013087
H        4.5602716887    2.4714567406    1.9622003548
H        6.8522062062   -0.2652384881   -0.4450867212
H        2.4668231081    1.5804430974    0.9790511061
H        4.7573974820   -1.1444080494   -1.4321035234
H        2.3821680704   -0.8880837436   -1.8416351754
H        1.4665666624    0.4009001824   -1.0648198868
H        2.1873664277   -2.2863482976    0.2183696146
H        0.5867915639   -1.8110217197   -0.4275116100
18   
Generated by ForceBalance from scan.xyz: Frame 17 of 24
C        5.8512595021    1.1562142528    0.8095839288
C        4.6083429528    1.6251370429    1.2500527234
C        5.9046751101    0.1805232619   -0.1901728468
C        3.4288943160    1.1218756768    0.6949276615
C        4.7215379984   -0.3213706526   -0.7430972468
C        3.4711116178    0.1413739113   -0.3091132517
C        2.1935367056   -0.4325389397   -0.8811346812
C        1.4917985520   -1.4132040992    0.0539618562
F        0.8525605837   -0.7171979168    1.0972903992
H        6.7686789982    1.5498203970    1.2397206377
H        4.5581927745    2.3840955870    2.0268852103
H        6.8651357202   -0.1875583155   -0.5423296361
H        2.4665001407    1.4847850676    1.0457057966
H        4.7726262965   -1.0779613678   -1.5238885597
H        2.4139175950   -0.9678177527   -1.8123065297
H        1.4811889924    0.3612865372   -1.1319703419
H        2.1970090910   -2.1127967628    0.5127411857
H        0.7105822306   -1.9692443621   -0.4751485416
18   
Generated by ForceBalance from scan.xyz: Frame 18 of 24
C        5.8566719033    1.1318918914    0.8066651842
C        4.6059709011    1.5179575598    1.3034209594
C        5.9259389607    0.2291114050   -0.2578644489
C        3.4358452993    1.0054117621    0.7383020300
C        4.7513779508   -0.2840581442   -0.8203498972
C        3.4944810849    0.0957478788   -0.3310061191
C        2.2239993300   -0.4817354829   -0.9167149287
C        1.4417279407   -1.3703957648    0.0527787646
F        0.5180682624   -0.5950693263    0.7836612462
H        6.7671953447    1.5325967652    1.2447668802
H        4.5432677447    2.2210280170    2.1303471138
H        6.8921059457   -0.0758683287   -0.6521745732
H        2.4670477490    1.3066739162    1.1293026284
H        4.8152393751   -0.9861544184   -1.6493984642
H        2.4754790838   -1.0807429179   -1.7991550790
H        1.5459053498    0.3083565868   -1.2576878849
H        2.0945562221   -1.8690568894    0.7743794075
H        0.8505298352   -2.1171125823   -0.4869637305
18   
Generated by ForceBalance from scan.xyz: Frame 19 of 24
C        5.8684332167    1.1125722371    0.7987175807
C        4.6238911045    1.4908303433    1.3171703167
C        5.9235719149    0.2276557131   -0.2812920355
C        3.4474511775    0.9873383408    0.7578041075
C        4.7420777814   -0.2761407990   -0.8384347276
C        3.4920114423    0.0957444285   -0.3272730453
C        2.2112036396   -0.4660281813   -0.9059584166
C        1.4242866425   -1.3561990043    0.0690559528
F        0.2968258888   -0.6643257842    0.5576505115
H        6.7844701215    1.5054601665    1.2323103023
H        4.5714225858    2.1812916239    2.1553197226
H        6.8847235667   -0.0716026964   -0.6918407233
H        2.4833133323    1.2857331176    1.1643134550
H        4.7951322101   -0.9647919556   -1.6793489034
H        2.4461035107   -1.0428429437   -1.8063642583
H        1.5378415496    0.3388014520   -1.2194037441
H        2.0241551861   -1.6494943723    0.9343887208
H        1.0389078142   -2.2515593285   -0.4279066512
18   
Generated by ForceBalance from scan.xyz: Frame 20 of 24
C        5.8519717638    1.0670910933    0.7910774237
C        4.6258762538    1.4981255351    1.3123019835
C        5.8677482659    0.1650517404   -0.2760299312
C        3.4282883554    1.0283529820    0.7686866166
C        4.6645146945   -0.3031169301   -0.8172975408
C        3.4319823601    0.1204945184   -0.3033113127
C        2.1276533171   -0.4076959899   -0.8606572247
C        1.4058558045   -1.3875162548    0.0851160037
F        0.1312221056   -0.8896704703    0.4218231848
H        6.7845853127    1.4337765906    1.2120099031
H        4.6043082851    2.2036804202    2.1391424748
H        6.8144521208   -0.1738817677   -0.6892740932
H        2.4789660533    1.3694294771    1.1771904110
H        4.6858634674   -1.0038882350   -1.6495233606
H        2.3043407760   -0.8847431339   -1.8292143540
H        1.4343142927    0.4200727096   -1.0413501301
H        1.9514325183   -1.5181413535    1.0231609143
H        1.2467781496   -2.3648735394   -0.3795160869
18   
Generated by ForceBalance from scan.xyz: Frame 21 of 24
C        5.9030066309    1.0660072488    0.8108298654
C        4.6826336727    1.5344887582    1.3121325781
C        5.9079020049    0.1456690505   -0.2409907672
C        3.4794239090    1.0828890429    0.7648334884
C        4.6995225947   -0.3030978745   -0.7862629925
C        3.4718501955    0.1580583594   -0.2918060522
C        2.1619306144   -0.3543790046   -0.8508349957
C        1.5023628829   -1.4153342430    0.0484961087
F        0.1264994920   -1.1482184360    0.1850811163
H        6.8398519553    1.4186053030    1.2343584342
H        4.6695217779    2.2551112863    2.1260118948
H        6.8504064541   -0.2215078247   -0.6393960599
H        2.5349466827    1.4545332515    1.1578272637
H        4.7117828003   -1.0166031465   -1.6077936530
H        2.3016001683   -0.7436168033   -1.8633727347
H        1.4489716700    0.4733135463   -0.9240745372
H        1.9243448843   -1.3929354876    1.0569142734
H        1.5968441342   -2.4262008674   -0.3586203054
18   
Generated by ForceBalance from scan.xyz: Frame 22 of 24
C        5.8969439770    1.0270782952    0.7940069793
C        4.6971056846    1.5452013803    1.2951169393
C        5.8607885141    0.0899130832   -0.2426262204
C        3.4735912090    1.1276666565    0.7651260915
C        4.6333870270   -0.3245922716   -0.7711742459
C        3.4257048498    0.1875077368   -0.2760861721
C        2.0961559666   -0.2942506912   -0.8151454467
C        1.5033721187   -1.4173116240    0.0442821029
F        0.0977274664   -1.3765566181   -0.0127945368
H        6.8487482198    1.3542994811    1.2043893257
H        4.7154756038    2.2791660534    2.0968103310
H        6.7866671215   -0.3159743543   -0.6423892755
H        2.5460413865    1.5390889362    1.1588212274
H        4.6140978215   -1.0502855430   -1.5818791039
H        2.1864679275   -0.6172520980   -1.8564726793
H        1.3743283331    0.5289177033   -0.7941225728
H        1.7759570970   -1.2848293256    1.0954408197
H        1.8201311472   -2.4109979297   -0.2866891329
18   
Generated by ForceBalance from scan.xyz: Frame 23 of 24
C        5.9055109663    1.0022578248    0.7876924531
C        4.7173014497    1.5311755492    1.3040576440
C        5.8502262523    0.0727049457   -0.2554154443
C        3.4856620962    1.1295835473    0.7799257646
C        4.6148947991   -0.3258325514   -0.7765554204
C        3.4178052691    0.1978808443   -0.2674986507
C        2.0783818478   -0.2666654298   -0.7970225950
C        1.5153129448   -1.4035188530    0.0539855580
F        0.1505262709   -1.5852234231   -0.2326818363
H        6.8646832950    1.3154986624    1.1917267498
H        4.7506129354    2.2589014266    2.1109692024
H        6.7684514521   -0.3400430652   -0.6656069693
H        2.5660621421    1.5498668641    1.1828438524
H        4.5801914244   -1.0461094845   -1.5915681707
H        2.1557062017   -0.5895081840   -1.8394830866
H        1.3572157385    0.5571919691   -0.7623184371
H        1.5891780687   -1.1649716294    1.1194971109
H        2.0249973713   -2.3531311759   -0.1376955014
18   
Generated by ForceBalance from scan.xyz: Frame 24 of 24
C        5.9140843851    0.9786456296    0.7752417755
C        4.7409432682    1.5313888340    1.2998896448
C        5.8323202203    0.0464603965   -0.2643449516
C        3.4966254794    1.1521000339    0.7879849239
C        4.5853325059   -0.3297337765   -0.7727802611
C        3.4025085242    0.2187387632   -0.2554253928
C        2.0519071436   -0.2269263961   -0.7719256773
C        1.5240209651   -1.4014564333    0.0462717131
F        0.2697108116   -1.8025144480   -0.4464912099
H        6.8826042128    1.2749016899    1.1696852259
H        4.7953556022    2.2603185784    2.1045394849
H        6.7389414734   -0.3845865022   -0.6814666686
H        2.5887021016    1.5912861035    1.1970306220
H        4.5296918410   -1.0520861154   -1.5848802095
H        2.1205079724   -0.5343552721   -1.8203027011
H        1.3267771758    0.5915195487   -0.7161772190
H        1.3908239074   -1.1277799639    1.0978055371
H        2.1931940953   -2.2654669944   -0.0178542679
