29   

C        1.8452251654   -3.6859436483   -0.9187629963
C        0.8848377074   -3.5530009317    0.0701352764
C        5.3029979950    1.3381204110    0.0193002943
C        5.9503973294    1.1948121945   -1.1981181637
C        2.7224272576   -2.6349560656   -1.1765826904
C        0.7894943249   -2.3548799655    0.7718733050
C        4.2202179421    0.5032608497    0.2715072229
C        5.5085090028    0.2260827676   -2.0997738611
C        2.6735102619   -1.4065386280   -0.4628430914
C        1.6469081890   -1.2660116751    0.5149330792
C        3.7831421112   -0.4293819808   -0.6924102924
C        1.1423142758    1.1626298996    0.3374934811
C        0.8134449532   -0.0250756209    2.5284651622
N        4.4623654186   -0.5743732244   -1.8512594762
N        1.3596322349   -0.0422220207    1.1606559121
H        1.9255434454   -4.6088086491   -1.4818979231
H        0.2020453249   -4.3679126863    0.2818340674
H        5.6366692590    2.0624647996    0.7550565719
H        6.8020060807    1.8136541453   -1.4506873337
H        3.4797273104   -2.8086442035   -1.9328674657
H       -0.0035352219   -2.2640888671    1.5010491471
H        3.7372714314    0.5600011614    1.2359240208
H        6.0337559113    0.1127448611   -3.0408756441
H        1.4035723696    0.9801925258   -0.7093329776
H        1.7522298655    1.9917915858    0.7082914444
H        0.0872209481    1.4515888739    0.3702710539
H        1.0861641846    0.9080753497    3.0308969336
H        1.2252080541   -0.8526474920    3.1149297669
H       -0.2776326810   -0.1103894808    2.5037237813
29   

C        1.8976261453   -3.7418127221   -0.8424154109
C        0.8965273964   -3.5797029416    0.1043829377
C        5.3461040981    1.2351595289    0.1032216340
C        5.8501526908    1.2613541751   -1.1895314490
C        2.7821061061   -2.6957718400   -1.0971277929
C        0.7706775581   -2.3610934200    0.7696284769
C        4.3027285832    0.3543283152    0.3634798569
C        5.3070213662    0.4139187809   -2.1583251994
C        2.6941234735   -1.4565919458   -0.4191014052
C        1.6369080243   -1.2790541895    0.5145080442
C        3.7783665851   -0.4592762850   -0.6577745888
C        1.2515765298    1.1741091094    0.2981875213
C        0.7385730489    0.0136100678    2.4668567438
N        4.3001609627   -0.4334765302   -1.9010752518
N        1.3606836307   -0.0375515542    1.1330083824
H        1.9998434847   -4.6803271140   -1.3752851515
H        0.2067011192   -4.3896025934    0.3124842883
H        5.7543250808    1.8691103588    0.8834926655
H        6.6644314787    1.9239926606   -1.4538988847
H        3.5734408438   -2.8626998793   -1.8199650859
H       -0.0472885422   -2.2520620215    1.4680812815
H        3.8962814251    0.2792813101    1.3634594444
H        5.7173605466    0.4393666030   -3.1610132124
H        1.4709549002    0.9544858340   -0.7511015708
H        1.9463241765    1.9428245691    0.6490580263
H        0.2310761487    1.5669982775    0.3429037915
H        0.9866905261    0.9575516882    2.9619500805
H        1.1139767657   -0.8007211196    3.0947463329
H       -0.3497892248   -0.0681350601    2.3828647394
29   

C        1.9323804577   -3.8049266006   -0.7679736362
C        0.8973174737   -3.6078669463    0.1380832851
C        5.4024413471    1.1178132902    0.1568471150
C        5.7538795999    1.3156985050   -1.1719142326
C        2.8303347456   -2.7701042028   -1.0234746327
C        0.7522305892   -2.3679880385    0.7630153983
C        4.4013541022    0.1898599580    0.4187234337
C        5.1030878744    0.5900254236   -2.1741260984
C        2.7177184600   -1.5199625320   -0.3814660989
C        1.6331032205   -1.2986721885    0.5061115081
C        3.7813441371   -0.5063832564   -0.6318730151
C        1.3402405489    1.1654795417    0.2415840397
C        0.6977611577    0.0518302564    2.3999466116
N        4.1380335550   -0.3043151350   -1.9143957323
N        1.3701983541   -0.0390568916    1.0932333584
H        2.0462663862   -4.7590739882   -1.2697850664
H        0.1960671534   -4.4080588324    0.3455627548
H        5.8891564743    1.6618494540    0.9596634124
H        6.5276475776    2.0235320076   -1.4408006046
H        3.6454561273   -2.9395825859   -1.7189802415
H       -0.0872954335   -2.2340786431    1.4309364742
H        4.0853119995   -0.0099411238    1.4348406293
H        5.3904641753    0.7548993603   -3.2059379026
H        1.5196043542    0.9134760183   -0.8080601408
H        2.0979906363    1.8834935282    0.5682754183
H        0.3538964935    1.6364933783    0.2962227288
H        0.9386849348    1.0045332058    2.8817252843
H        1.0388048197   -0.7511535420    3.0611329363
H       -0.3874916492   -0.0187198626    2.2757033034
29   

C        1.9521211084   -3.8358084597   -0.6827100912
C        0.8841154198   -3.5979708527    0.1761843672
C        5.5059647460    0.9887139837    0.1974808694
C        5.6985298546    1.3633730330   -1.1261357479
C        2.8683017219   -2.8171759190   -0.9402837753
C        0.7262878282   -2.3357134966    0.7540151526
C        4.5333431779    0.0287027713    0.4511350102
C        4.9220559428    0.7770820578   -2.1306923279
C        2.7372984111   -1.5498919047   -0.3437834735
C        1.6264035381   -1.2835485427    0.4945676865
C        3.7936252875   -0.5290809385   -0.6023128492
C        1.4093184138    1.1837246438    0.1769331325
C        0.6682216208    0.1254386258    2.3322028552
N        3.9851715762   -0.1488208023   -1.8783368177
N        1.3749864518   -0.0066497655    1.0475486466
H        2.0744327157   -4.8074397917   -1.1476325527
H        0.1678913829   -4.3847238549    0.3839169287
H        6.0876008650    1.4268843410    1.0019169546
H        6.4417653651    2.1053137562   -1.3891546276
H        3.7055549355   -3.0062507223   -1.6034705780
H       -0.1341888470   -2.1717681461    1.3877692021
H        4.3247594973   -0.2994074658    1.4615733079
H        5.0829531016    1.0826793940   -3.1578816337
H        1.5346179995    0.9010261601   -0.8726705433
H        2.2278392293    1.8479478104    0.4686598861
H        0.4627014055    1.7278867246    0.2505604911
H        0.9116919252    1.0850640508    2.7987762232
H        0.9779003109   -0.6671398708    3.0208144432
H       -0.4141766951    0.0693569434    2.1793522178
29   

C        1.9991529259   -3.8552337686   -0.6173041648
C        0.8983984662   -3.5981283960    0.1942973004
C        5.6666857088    0.8111523380    0.1971933951
C        5.6939068203    1.3925543182   -1.0640877854
C        2.9155271774   -2.8370067337   -0.8771643303
C        0.7113026934   -2.3192676060    0.7259613087
C        4.6976434091   -0.1580453106    0.4294018174
C        4.7636767500    0.9938570619   -2.0292314784
C        2.7479762081   -1.5525159347   -0.3314225761
C        1.6123390347   -1.2690391655    0.4639839547
C        3.8007642451   -0.5217667704   -0.5846063487
C        1.3735857644    1.1850482942    0.0906179241
C        0.6378864185    0.1680105192    2.2684193166
N        3.8312553497    0.0582504442   -1.7972424269
N        1.3486090554    0.0160026050    0.9884322915
H        2.1456823785   -4.8411354973   -1.0435977155
H        0.1814234683   -4.3838825233    0.4032407160
H        6.3695557541    1.1015077089    0.9712134786
H        6.4252973224    2.1526008981   -1.3078852409
H        3.7775879913   -3.0387089139   -1.5035209011
H       -0.1688762642   -2.1410942618    1.3281637058
H        4.6138653491   -0.6417821250    1.3940960603
H        4.7959917789    1.4598591184   -3.0070750662
H        1.4187980846    0.8718112735   -0.9566797592
H        2.2334571251    1.8226576302    0.3146916762
H        0.4546592226    1.7675138048    0.2082153824
H        0.8758241238    1.1371372757    2.7179218484
H        0.9498860486   -0.6104778582    2.9718921534
H       -0.4438232861    0.1036427646    2.1142284407
29   

C        2.0277111082   -3.8399204137   -0.5268835379
C        0.8937513142   -3.5635985002    0.2308337145
C        5.8732920330    0.5715722694    0.1201012567
C        5.7549458121    1.3688911848   -1.0109116550
C        2.9431818846   -2.8220560816   -0.7921203511
C        0.6772196518   -2.2681605802    0.7079518026
C        4.8744628928   -0.3696666710    0.3415086106
C        4.6598667987    1.1994909375   -1.8636902516
C        2.7384016235   -1.5168157545   -0.3114322746
C        1.5784643829   -1.2201666268    0.4409067150
C        3.8010539589   -0.4901630182   -0.5520688742
C        1.2019760180    1.1923468881   -0.0190342837
C        0.6259406172    0.2381515027    2.2327680186
N        3.7004877330    0.2889410562   -1.6428202385
N        1.2929233173    0.0708943979    0.9317303448
H        2.2007939377   -4.8406450214   -0.9061338059
H        0.1766880752   -4.3482291883    0.4436859328
H        6.7087944760    0.6782247853    0.8042083870
H        6.4999936806    2.1203093978   -1.2395360454
H        3.8320678684   -3.0408686522   -1.3734638975
H       -0.2223961431   -2.0736301657    1.2756866625
H        4.9052933686   -1.0180954839    1.2075357824
H        4.5817337872    1.8296012117   -2.7418792670
H        1.2106403719    0.8287055724   -1.0509462511
H        2.0331036914    1.8878148325    0.1275994511
H        0.2577228892    1.7273699511    0.1208446524
H        0.8772597870    1.2136927228    2.6605180722
H        0.9627738154   -0.5309796537    2.9350548227
H       -0.4602109348    0.1687679332    2.1166402431
29   

C        2.0655820813   -3.8299068496   -0.4288485212
C        0.8907944561   -3.5332579113    0.2546248467
C        6.0386777276    0.3698786261   -0.0107253586
C        5.8141087915    1.3436576860   -0.9746648413
C        2.9872159736   -2.8155099146   -0.6864034332
C        0.6443290135   -2.2226328604    0.6703149255
C        5.0198548577   -0.5489529299    0.2140219792
C        4.6004170719    1.3608113387   -1.6681893102
C        2.7485589061   -1.4906342462   -0.2763564969
C        1.5531230807   -1.1799265895    0.4123991245
C        3.8190005471   -0.4725845785   -0.5076524980
C        0.9829097617    1.1656682032   -0.1352976756
C        0.6352859358    0.2978667888    2.1948580736
N        3.6235733801    0.4697050989   -1.4463316166
N        1.2369801079    0.1153467675    0.8648412921
H        2.2650666983   -4.8437151292   -0.7569917754
H        0.1677147387   -4.3142390069    0.4604417163
H        6.9693314609    0.3273458621    0.5456090434
H        6.5674427514    2.0889557674   -1.1959333482
H        3.9059788224   -3.0532475383   -1.2110649224
H       -0.2810142363   -2.0086970664    1.1879619273
H        5.1345136675   -1.3299409988    0.9544457855
H        4.4411155500    2.1253300497   -2.4195030282
H        1.0380502515    0.7588836118   -1.1497635924
H        1.7117043511    1.9746862916   -0.0327080240
H       -0.0247843642    1.5722437751   -0.0059954331
H        0.9103178993    1.2769699255    2.5990504845
H        1.0023410065   -0.4662089072    2.8874653116
H       -0.4553906575    0.2293124128    2.1331668917
29   

C        0.8204657351   -2.5556770078   -2.1783479393
C       -0.1010298142   -2.6036746863   -1.1392850997
C        5.8823540140    0.0032276153   -1.0072276138
C        5.6896696506    1.3660158645   -0.8181600689
C        1.9867171904   -1.8081019541   -2.0286325268
C        0.1595973492   -1.9205222153    0.0504591977
C        4.7517998497   -0.8062012747   -1.0042014326
C        4.3948342750    1.8642425519   -0.6404718301
C        2.2570034697   -1.0996067603   -0.8417958165
C        1.3395936364   -1.1733106599    0.2405221439
C        3.4803988700   -0.2467082653   -0.8034165243
C        0.4460951903   -0.1260541877    2.3380893666
C        2.9044946846   -0.6173300538    2.1362456982
N        3.3098066464    1.0782095624   -0.6385770791
N        1.5704323877   -0.5963341012    1.5128823159
H        0.6273317281   -3.0861541596   -3.1038454028
H       -1.0143673103   -3.1774774023   -1.2472591360
H        6.8739490821   -0.4127621161   -1.1534113422
H        6.5297115892    2.0489463387   -0.8109932843
H        2.6838929774   -1.7505843852   -2.8570785217
H       -0.5617828214   -2.0070303776    0.8510436573
H        4.8386650995   -1.8752956580   -1.1487635457
H        4.2611093256    2.9304015955   -0.4998382721
H       -0.3372151220    0.3039974476    1.7058011403
H        0.7826516964    0.6559707909    3.0258349287
H        0.0293525902   -0.9542232475    2.9197755518
H        3.3401380353    0.3859287105    2.1431675207
H        3.5755610184   -1.3001974632    1.6077351124
H        2.8267761192   -0.9813135862    3.1652609091
29   

C        0.9611648891   -2.6128839828   -2.1172851809
C       -0.0102836204   -2.6103482549   -1.1255588379
C        5.9462038876    0.0614445181   -1.1272068306
C        5.7670966423    1.3805218821   -0.7321517980
C        2.1302625054   -1.8772409217   -1.9371144955
C        0.2040959646   -1.8910170635    0.0506731149
C        4.8262029041   -0.7627153273   -1.1259317465
C        4.4956219816    1.8225942757   -0.3555389875
C        2.3613215605   -1.1280225333   -0.7636400196
C        1.3849277220   -1.1540145169    0.2749929348
C        3.5733740465   -0.2628370353   -0.7303870079
C        0.4083684431   -0.0627571978    2.3171803401
C        2.8683042014   -0.5756927851    2.2299596389
N        3.4211507261    1.0226625513   -0.3550344380
N        1.5615125100   -0.5593035140    1.5494468833
H        0.8031393345   -3.1707353502   -3.0333304950
H       -0.9270673724   -3.1732314030   -1.2589019251
H        6.9206244487   -0.3114216301   -1.4257861512
H        6.5998922094    2.0720573694   -0.7139026672
H        2.8549524450   -1.8571874345   -2.7430781414
H       -0.5564925977   -1.9429238602    0.8171558830
H        4.9141605170   -1.8001110674   -1.4208991177
H        4.3713314309    2.8553165420   -0.0516016525
H       -0.3489715834    0.3516971785    1.6443021773
H        0.7221146423    0.7372844214    2.9949237636
H       -0.0328640431   -0.8731768622    2.9058324731
H        3.3096065036    0.4253665776    2.2385619329
H        3.5570225388   -1.2704691852    1.7402407272
H        2.7460439087   -0.9154108116    3.2629884751
29   

C        1.0242129896   -2.7125349975   -2.0523568713
C        0.0181853363   -2.6469546683   -1.1005591235
C        5.9337175184    0.1223478816   -1.2986043681
C        5.7821688103    1.3842203778   -0.7423988474
C        2.1987691093   -1.9877335482   -1.8652208165
C        0.2047788653   -1.8774237024    0.0462706870
C        4.8281779029   -0.7211905220   -1.2815573713
C        4.5522946797    1.7503269242   -0.1915564804
C        2.4117910602   -1.1865116099   -0.7181655487
C        1.3902951325   -1.1512207640    0.2807733150
C        3.6066856804   -0.2966030312   -0.7211571715
C        0.3676238718    0.0320394051    2.2495976399
C        2.7948129888   -0.6251087872    2.2995849826
N        3.4927001344    0.9315758963   -0.1771672848
N        1.5305695390   -0.5334784670    1.5479542579
H        0.8872116352   -3.3075225263   -2.9482293672
H       -0.9038345287   -3.1994227952   -1.2412327073
H        6.8785031277   -0.1950782460   -1.7278785032
H        6.6052373070    2.0873567065   -0.7277705151
H        2.9318720026   -2.0158339859   -2.6622122349
H       -0.5822858076   -1.8834292363    0.7873518452
H        4.9173297526   -1.7186868650   -1.6896103167
H        4.4484717654    2.7376675175    0.2428419472
H       -0.3479035005    0.4458159426    1.5321255644
H        0.6844916393    0.8456201138    2.9094530881
H       -0.1251495775   -0.7397049983    2.8493210813
H        3.2543572434    0.3629772416    2.3981254605
H        3.4996562313   -1.2986019070    1.8029474662
H        2.6058543834   -1.0276536563    3.2993734293
29   

C        1.0751954039   -2.7985004743   -1.9570102844
C        0.0433855617   -2.6735597102   -1.0428399347
C        5.8975188227    0.2212713390   -1.4557967778
C        5.7994435460    1.4059670317   -0.7440171108
C        2.2529176357   -2.0782097606   -1.7736058593
C        0.2086656715   -1.8505313091    0.0668461457
C        4.8055839921   -0.6398694480   -1.4232619296
C        4.6357242803    1.6775898176   -0.0253975541
C        2.4550287211   -1.2195321700   -0.6608442599
C        1.3962359170   -1.1277420378    0.3014249714
C        3.6355797977   -0.3075149943   -0.7014551603
C        0.3299910664    0.1644682490    2.1773470797
C        2.7006422035   -0.6503455607    2.3889596136
N        3.5903264434    0.8419674762    0.0017265140
N        1.4978835488   -0.4777451158    1.5550228298
H        0.9552805226   -3.4349067353   -2.8265274861
H       -0.8816390944   -3.2211646897   -1.1828703146
H        6.7948859516   -0.0279405487   -2.0128130619
H        6.6148234496    2.1180325044   -0.7330218414
H        2.9844260279   -2.1634499955   -2.5655522128
H       -0.5984050936   -1.8125690821    0.7851780365
H        4.8884082699   -1.5801582508   -1.9476334677
H        4.5727361520    2.6026212253    0.5355451053
H       -0.3392755704    0.5669700450    1.4105926861
H        0.6513888717    0.9973122553    2.8103283061
H       -0.2167792250   -0.5581626017    2.7913855290
H        3.1805335192    0.3161102002    2.5710971550
H        3.4217774886   -1.3159235432    1.9048473314
H        2.4286397260   -1.0977138551    3.3497059411
29   

C        1.1245068586   -2.8972418883   -1.8586676034
C        0.0825577188   -2.7387721373   -0.9648161876
C        5.8006971219    0.3909845411   -1.6592759527
C        5.8307644121    1.4145387903   -0.7290108840
C        2.2945534747   -2.1589663778   -1.6989532485
C        0.2334136784   -1.8663621231    0.1056961446
C        4.7151620470   -0.4789836266   -1.6275940924
C        4.7932512562    1.5245922017    0.1924908807
C        2.4829041409   -1.2337196012   -0.6328496113
C        1.4110289171   -1.1211462592    0.3171637431
C        3.6679133062   -0.3207191881   -0.6821049408
C        0.3025007896    0.3176522655    2.0512816097
C        2.5593217164   -0.7047262117    2.4913645183
N        3.7549422636    0.6810903444    0.2162149382
N        1.4684920545   -0.4203823169    1.5427630369
H        1.0221323266   -3.5818139642   -2.6931828518
H       -0.8358860856   -3.3016608777   -1.0864691422
H        6.5965855033    0.2706552726   -2.3870986247
H        6.6475711097    2.1246412015   -0.7065043416
H        3.0282627454   -2.3175662156   -2.4737220297
H       -0.5779234550   -1.8029671344    0.8177843494
H        4.7259611789   -1.2746471738   -2.3534574159
H        4.8257708586    2.3251660974    0.9220871186
H       -0.3254591587    0.6602337217    1.2229429946
H        0.6310928215    1.1989942759    2.6104279379
H       -0.2921498824   -0.3227910537    2.7104516404
H        3.0632578024    0.2230040841    2.7795942312
H        3.2983639660   -1.3774937015    2.0450802088
H        2.1610390761   -1.1888364130    3.3880582027
29   

C        1.2185398612   -2.9899758446   -1.7888550134
C        0.2062785283   -2.8682834006   -0.8540204981
C        5.6132434105    0.6394955472   -1.9216770178
C        5.9287274143    1.3395618458   -0.7703913586
C        2.3506698099   -2.1840683144   -1.6920648596
C        0.3494856242   -1.9577451680    0.1867606046
C        4.5030835994   -0.1978854788   -1.8817863911
C        5.1296852781    1.1841478235    0.3597561041
C        2.5151548490   -1.2122444079   -0.6666934756
C        1.4848189032   -1.1357076651    0.3225339213
C        3.7300446921   -0.3439813381   -0.7017562832
C        0.3314563118    0.5094973932    1.8001253496
C        2.4075622195   -0.6805056068    2.5713587438
N        4.0663923503    0.3719312448    0.3884766887
N        1.4994767268   -0.3203782459    1.4698536655
H        1.1311716187   -3.7129873332   -2.5920481951
H       -0.6803266891   -3.4885386109   -0.9203417811
H        6.2026378715    0.7498956786   -2.8261071686
H        6.7780036016    2.0101481360   -0.7402908964
H        3.1072427189   -2.3569984329   -2.4440577588
H       -0.4344722581   -1.9046437726    0.9304632329
H        4.2417634908   -0.7024292136   -2.7985053646
H        5.3775622025    1.7427586035    1.2546188725
H       -0.2640617112    0.7082594155    0.9034888683
H        0.6584800827    1.4700809887    2.2093847939
H       -0.2992685566    0.0004076548    2.5358756766
H        2.9351930624    0.2079236820    2.9315966048
H        3.1508455769   -1.4111352741    2.2365897448
H        1.8430969612   -1.1245375934    3.3968129104
29   

C        1.2679309147   -3.0448653173   -1.7394461643
C        0.2713173793   -2.9561004140   -0.7796418381
C        5.4248333230    0.8461573264   -1.9373905441
C        5.9274869331    1.2956927692   -0.7266366535
C        2.3735092411   -2.1993146357   -1.6668887244
C        0.3965657527   -2.0283032247    0.2516271915
C        4.3101908975    0.0155011403   -1.8983444523
C        5.3041973086    0.9073247782    0.4596575373
C        2.5180303704   -1.2332908567   -0.6401466605
C        1.5030560572   -1.1656709845    0.3552134321
C        3.7231937656   -0.3583729363   -0.6691720454
C        0.3249205342    0.5796335090    1.6708785003
C        2.3093781595   -0.6316391107    2.6227198530
N        4.2338275198    0.1031775503    0.4870872721
N        1.4955296492   -0.2812269162    1.4473152333
H        1.1894931466   -3.7726157514   -2.5392179771
H       -0.5931273040   -3.6086689566   -0.8249753893
H        5.8766273309    1.1392892113   -2.8794360388
H        6.7906551768    1.9479763617   -0.6902301804
H        3.1387010121   -2.3211980064   -2.4235647849
H       -0.3788759966   -1.9817553248    1.0048839738
H        3.8801012745   -0.3179481368   -2.8321721962
H        5.7024025045    1.2693244048    1.4002233439
H       -0.2276998689    0.7249180656    0.7372099751
H        0.6458683117    1.5614873757    2.0316316923
H       -0.3453574470    0.1259723187    2.4078782203
H        2.8649667186    0.2439773915    2.9716772621
H        3.0273161080   -1.4200035977    2.3748759573
H        1.6692634793   -0.9992586590    3.4304450326
29   

C        1.3276563706   -3.1265636536   -1.6684351272
C        0.3213943854   -3.0288414871   -0.7159187537
C        5.2665307568    1.0029364253   -1.9004754068
C        5.9152742937    1.2700723221   -0.7036365574
C        2.4215748748   -2.2641622883   -1.6068028992
C        0.4208961672   -2.0707822127    0.2929786564
C        4.1583391789    0.1646081991   -1.8514538637
C        5.4403747395    0.6975766221    0.4786817304
C        2.5402204025   -1.2863573189   -0.5942492660
C        1.5156377166   -1.1928646973    0.3818408038
C        3.7219663395   -0.3814695332   -0.6292212033
C        0.3147705982    0.5972579979    1.6075808993
C        2.3034719712   -0.5494101122    2.6253316794
N        4.3741048070   -0.1126235608    0.5161220552
N        1.4987058394   -0.2557619738    1.4282804288
H        1.2637302820   -3.8710624063   -2.4539155911
H       -0.5335004703   -3.6943688706   -0.7530562996
H        5.6059882953    1.4351176378   -2.8361259566
H        6.7822338812    1.9176752226   -0.6742809905
H        3.1991966789   -2.3655466150   -2.3552064358
H       -0.3640991221   -2.0099673175    1.0352000480
H        3.6115813434   -0.0564760305   -2.7583778328
H        5.9566440490    0.9146849376    1.4063775283
H       -0.2156189018    0.7195223769    0.6578410706
H        0.6176683290    1.5891275286    1.9565373131
H       -0.3689374552    0.1517259881    2.3371101126
H        2.8951116215    0.3265109871    2.9074340840
H        2.9860704326   -1.3845408831    2.4383614447
H        1.6526361476   -0.8295719459    3.4592127971
29   

C        1.3641952505   -3.1954211204   -1.6151505925
C        0.3261955508   -3.0600940286   -0.6998173916
C        5.1287123573    1.1360139466   -1.8149906897
C        5.9125719426    1.2292890815   -0.6732050218
C        2.4617564761   -2.3379237186   -1.5440592553
C        0.3962941338   -2.0691198449    0.2811596270
C        4.0227759935    0.2952360017   -1.7604487715
C        5.5693162557    0.4880557795    0.4608974053
C        2.5493869017   -1.3370278212   -0.5557260853
C        1.4956787001   -1.1978159683    0.3785327543
C        3.7216987453   -0.4154451732   -0.5864324380
C        0.2632195241    0.5977929812    1.5701363882
C        2.3254975272   -0.4271231637    2.5694316989
N        4.5030828741   -0.3228282442    0.5039589801
N        1.4718336758   -0.2199649151    1.3880393315
H        1.3203015566   -3.9625389936   -2.3799451219
H       -0.5316312260   -3.7213114570   -0.7452794448
H        5.3666770188    1.6977699353   -2.7123409515
H        6.7859539046    1.8684942782   -0.6504578066
H        3.2643447117   -2.4505359357   -2.2644232733
H       -0.4137649680   -1.9805482063    0.9928280674
H        3.3730302218    0.1895217383   -2.6193558089
H        6.1924774092    0.5688448779    1.3437651284
H       -0.2718140083    0.7047234170    0.6211477171
H        0.5375458980    1.5986121180    1.9173919443
H       -0.4049745053    0.1335500079    2.3023325946
H        2.9558954973    0.4502365489    2.7407500607
H        2.9687995758   -1.3026091932    2.4360450165
H        1.7075256669   -0.6050018529    3.4548382569
29   

C        1.4039634478   -3.2642777361   -1.5760941855
C        0.3264975802   -3.0796419818   -0.7156722982
C        4.9992143084    1.2815341690   -1.6908790669
C        5.9146678704    1.1988259954   -0.6502433411
C        2.5073344800   -2.4157376239   -1.4898734082
C        0.3635835478   -2.0508565775    0.2284992858
C        3.8977434368    0.4349995803   -1.6372222229
C        5.6995915930    0.2863031004    0.3867607013
C        2.5583084555   -1.3783464323   -0.5403298445
C        1.4700021642   -1.1892996477    0.3425913224
C        3.7321844934   -0.4523649052   -0.5630165356
C        0.1926961378    0.5833178057    1.5378434523
C        2.3834236465   -0.2471873676    2.4406825548
N        4.6351801115   -0.5277637429    0.4298529536
N        1.4344394778   -0.1740767248    1.3172639575
H        1.3852553093   -4.0610029763   -2.3110452555
H       -0.5363527886   -3.7332400933   -0.7743217941
H        5.1356561362    1.9781939658   -2.5115420166
H        6.7927682221    1.8317294853   -0.6326129076
H        3.3407502682   -2.5574330706   -2.1690262157
H       -0.4772847123   -1.9315611037    0.8983680733
H        3.1480807789    0.4547457830   -2.4175610541
H        6.4244591068    0.2315445472    1.1904410345
H       -0.3670781188    0.6786891039    0.6019969283
H        0.4272433037    1.5916386793    1.8927119844
H       -0.4352527018    0.0794527302    2.2793799438
H        3.0370630634    0.6296589917    2.4457966025
H        2.9962880500   -1.1514410422    2.3746897273
H        1.8400640079   -0.2952481815    3.3893138804
29   

C        1.4309655814   -3.3494781034   -1.5145586865
C        0.3202468424   -3.1137596032   -0.7101065415
C        4.8668680372    1.4334953573   -1.4676814671
C        5.9028793805    1.1661449746   -0.5821364445
C        2.5372177232   -2.5052344744   -1.4251357643
C        0.3284615809   -2.0421828915    0.1867500241
C        3.7700531746    0.5798044036   -1.4389820370
C        5.8049733191    0.0742620646    0.2858598102
C        2.5532663036   -1.4205297239   -0.5308131465
C        1.4388224997   -1.1851560542    0.3065367206
C        3.7324648196   -0.4984879779   -0.5440002479
C        0.1293506031    0.5682514895    1.5127254405
C        2.4365207782   -0.0602524883    2.2845376198
N        4.7432194702   -0.7445978075    0.3071445598
N        1.3947135242   -0.1339501193    1.2457647535
H        1.4358052903   -4.1820123482   -2.2088929974
H       -0.5452157745   -3.7635013782   -0.7728593650
H        4.9092496476    2.2737312794   -2.1529918520
H        6.7847756480    1.7934768999   -0.5555121555
H        3.3981837648   -2.6833573854   -2.0599284650
H       -0.5377737285   -1.8927735739    0.8166718534
H        2.9274138170    0.7365845830   -2.0998798532
H        6.6216045564   -0.1207957654    0.9710051247
H       -0.4582957632    0.6567030017    0.5934421415
H        0.3315677154    1.5798883384    1.8781233607
H       -0.4559592625    0.0281893011    2.2635615626
H        3.0791008602    0.8096218855    2.1221686767
H        3.0478352968   -0.9676913739    2.2869320391
H        1.9752842514    0.0142444720    3.2740530447
29   

C        1.4812509693   -3.4271039621   -1.4971682954
C        0.3422088361   -3.1545368408   -0.7456850532
C        4.7923012342    1.5556385571   -1.1829052757
C        5.9258314090    1.1182114170   -0.5095749687
C        2.5857930535   -2.5812697986   -1.4043546901
C        0.3217870682   -2.0480456029    0.1077668713
C        3.6942687984    0.7033628609   -1.1991581957
C        5.9184363842   -0.1322517616    0.1165770052
C        2.5690204850   -1.4542970481   -0.5644046727
C        1.4305544742   -1.1887652107    0.2332051341
C        3.7544909867   -0.5434834537   -0.5614832982
C        0.0903210568    0.5489691481    1.4393269433
C        2.4607436044    0.0688815291    2.1241982805
N        4.8546742695   -0.9487047579    0.0968684957
N        1.3722043982   -0.1126556538    1.1467096942
H        1.5101288851   -4.2900052401   -2.1527350067
H       -0.5219991805   -3.8055437863   -0.8124148959
H        4.7618341890    2.5227169799   -1.6740961919
H        6.8141546379    1.7351636032   -0.4617085111
H        3.4710704646   -2.7889597287   -1.9953748954
H       -0.5656085514   -1.8785061132    0.7018174356
H        2.7755617512    0.9882541390   -1.6956169434
H        6.8095047876   -0.4571269384    0.6408249528
H       -0.5154888087    0.6240411979    0.5306904173
H        0.2666186882    1.5648956456    1.8063227077
H       -0.4640885408   -0.0119664200    2.1982705075
H        3.0448273608    0.9624630377    1.8865279269
H        3.1222261832   -0.8024650815    2.1378857192
H        2.0464503685    0.1685990553    3.1321355347
29   

C        1.5072445098   -3.4754006663   -1.4355096578
C        0.3465809482   -3.1716452632   -0.7316065414
C        4.7624627661    1.6086892885   -0.9503054223
C        5.9623654829    1.0600943275   -0.5159468567
C        2.6103091627   -2.6280784039   -1.3425187311
C        0.3043810664   -2.0345078639    0.0790730502
C        3.6503852049    0.7749926586   -0.9634003734
C        6.0051507396   -0.2786150351   -0.1137117836
C        2.5725415070   -1.4650597727   -0.5519680131
C        1.4116272999   -1.1728724273    0.2061564846
C        3.7603927920   -0.5630052642   -0.5562964852
C        0.0469811800    0.5747544581    1.3740201975
C        2.4195154159    0.1379828891    2.0773595271
N        4.9277628051   -1.0771936326   -0.1290380705
N        1.3371429223   -0.0787043820    1.0987547312
H        1.5546440659   -4.3635961837   -2.0552214925
H       -0.5167774297   -3.8236547189   -0.7994722537
H        4.6928456802    2.6448387617   -1.2648836622
H        6.8647715476    1.6573114205   -0.4836023508
H        3.5119758989   -2.8613223985   -1.8985347109
H       -0.5992372814   -1.8458685982    0.6419523471
H        2.6823674178    1.1426622249   -1.2794918575
H        6.9486039234   -0.6902764657    0.2251497996
H       -0.5544677558    0.6304635061    0.4611007320
H        0.2109499789    1.5976717058    1.7270151723
H       -0.5060869480    0.0197075823    2.1383056524
H        2.9407647870    1.0769235487    1.8700815177
H        3.1411150647   -0.6842743143    2.0556201827
H        2.0060539311    0.1736741119    3.0899750871
29   

C        1.5888501865   -3.5243896076   -1.3928018851
C        0.3970815388   -3.2066363471   -0.7526346571
C        4.7872721327    1.6269799302   -0.7861065128
C        6.0203855668    1.0231797907   -0.5781551120
C        2.6832730236   -2.6695511879   -1.2746225451
C        0.3163167572   -2.0486405035    0.0228437129
C        3.6652624186    0.8069710913   -0.7623623270
C        6.0861937304   -0.3559652795   -0.3584656035
C        2.6133393498   -1.4811213530   -0.5192632552
C        1.4142511182   -1.1789612701    0.1763363394
C        3.7949077585   -0.5726548544   -0.5330450299
C       -0.0048865730    0.5728185211    1.2729755395
C        2.3312577641    0.1372269331    2.0880123393
N        4.9995270539   -1.1416617424   -0.3372071845
N        1.2978751212   -0.0784536539    1.0571320456
H        1.6673412658   -4.4282960743   -1.9860745836
H       -0.4603914943   -3.8638620160   -0.8415285843
H        4.7004833124    2.6940937624   -0.9625015356
H        6.9317557744    1.6074566729   -0.5865819112
H        3.6036335485   -2.9174186451   -1.7926654370
H       -0.6117686609   -1.8514209294    0.5411260196
H        2.6764200982    1.2187264381   -0.9203008850
H        7.0564380648   -0.8118519936   -0.1997169412
H       -0.5701507977    0.6148693569    0.3365089141
H        0.1410043563    1.6004563856    1.6200701518
H       -0.5856770516    0.0244111888    2.0213858611
H        2.8098855186    1.1112621986    1.9515128991
H        3.0976495232   -0.6429458380    2.0503956158
H        1.8788919897    0.0972886494    3.0837463967
29   

C        1.6298243382   -3.5472781438   -1.3071624214
C        0.4174623542   -3.2092283302   -0.7233959245
C        4.8332633213    1.6366264354   -0.6564645379
C        6.0670050467    1.0015560466   -0.6803235895
C        2.7221838621   -2.6928277928   -1.1728812271
C        0.3149706499   -2.0310640561    0.0147134816
C        3.7030423904    0.8320036011   -0.5703289151
C        6.1253965116   -0.3932089928   -0.6260046722
C        2.6407901632   -1.4782233734   -0.4509408423
C        1.4099696900   -1.1605062222    0.1859902477
C        3.8225811650   -0.5678858160   -0.4941455884
C       -0.0449970883    0.6099491005    1.2047941001
C        2.2379060733    0.1412472004    2.1437561126
N        5.0313623952   -1.1640240481   -0.5426286053
N        1.2600261316   -0.0562194222    1.0567094334
H        1.7265651821   -4.4660566424   -1.8743454423
H       -0.4390406064   -3.8656328335   -0.8265355305
H        4.7510420854    2.7171503566   -0.7118584596
H        6.9837352331    1.5733065283   -0.7491451215
H        3.6478806726   -2.9686124114   -1.6664383114
H       -0.6304783947   -1.8192863178    0.4943682674
H        2.7186970034    1.2812446517   -0.5765147784
H        7.0957260926   -0.8749213904   -0.6547072564
H       -0.5708524417    0.6372243285    0.2450847785
H        0.0953661889    1.6431400633    1.5372346932
H       -0.6613924411    0.0812017377    1.9387942143
H        2.6805141111    1.1397249857    2.0818052359
H        3.0395160871   -0.6021013908    2.0968089889
H        1.7444881090    0.0282456154    3.1140932008
29   

C        1.6739344284   -3.5814751330   -1.2154336422
C        0.4449265813   -3.2189514938   -0.6899628160
C        4.9048727507    1.6314227628   -0.5341912944
C        6.1078246228    0.9917781100   -0.7900646116
C        2.7662403046   -2.7290737179   -1.0712133497
C        0.3271878632   -2.0187353480    0.0048138009
C        3.7742356102    0.8355658457   -0.3883068740
C        6.1342120452   -0.3984755760   -0.9046651203
C        2.6785006656   -1.4835039619   -0.3918546848
C        1.4210212341   -1.1488034358    0.1879897535
C        3.8612798843   -0.5702685624   -0.4669861187
C       -0.0577081321    0.6535350871    1.1119546878
C        2.1410590074    0.1150887464    2.2050954974
N        5.0405885380   -1.1601828051   -0.7607882054
N        1.2385904633   -0.0429822547    1.0487964286
H        1.7848596165   -4.5180856739   -1.7499499686
H       -0.4120142968   -3.8731947136   -0.8027431177
H        4.8429626491    2.7125545933   -0.4658495285
H        7.0219819752    1.5576817573   -0.9168091717
H        3.6933305614   -3.0440201131   -1.5369989704
H       -0.6321103149   -1.7889653987    0.4473029040
H        2.8182293096    1.3171953154   -0.2447181329
H        7.0779015080   -0.8850435550   -1.1216959406
H       -0.5367982293    0.6595778664    0.1276757139
H        0.0886368945    1.6939057267    1.4182176588
H       -0.7200426732    0.1605827659    1.8307363616
H        2.5423226624    1.1323857790    2.2381834410
H        2.9786323113   -0.5871779542    2.1534266669
H        1.5969464978   -0.0856162445    3.1332377508
29   

C        1.7759628811   -3.6107629894   -1.0068539796
C        0.8435600214   -3.4940557781    0.0081152436
C        5.2567084455    1.4652693183   -0.0953255096
C        6.0568925809    1.1373282555   -1.1762922384
C        2.6686685509   -2.5695439947   -1.2501776563
C        0.7900193587   -2.3181159139    0.7475289567
C        4.1396360776    0.6720670468    0.1438497375
C        5.7265956707    0.0322357557   -1.9572721443
C        2.6706005399   -1.3604149045   -0.4942375382
C        1.6638153730   -1.2388202536    0.5075315017
C        3.8096242397   -0.4083300550   -0.7081950655
C        0.9819337850    1.1337901811    0.3878050109
C        0.9658885948   -0.0611513303    2.6018842905
N        4.6464128405   -0.7251895002   -1.7228922329
N        1.3816630737   -0.0378768826    1.1890070161
H        1.8237547568   -4.5149192497   -1.6030852003
H        0.1491041046   -4.3016979947    0.2094449750
H        5.5009953098    2.2995797004    0.5539766939
H        6.9415743285    1.7157952624   -1.4100513320
H        3.3941016682   -2.7467634483   -2.0358363689
H        0.0141330288   -2.2308347907    1.4956739078
H        3.5654749562    0.8959065463    1.0266435605
H        6.3702597575   -0.2285631810   -2.7891727342
H        1.3217082225    1.0358230579   -0.6479243321
H        1.4189723568    2.0458157910    0.8056413692
H       -0.1083760175    1.2286222538    0.3811616608
H        1.3142360426    0.8425691629    3.1111424746
H        1.4014143523   -0.9244402339    3.1151920529
H       -0.1248914032   -0.1162202637    2.6764412417
