23   

C       -4.8396819743   -6.8726002838   -2.0227441006
C        1.2450131737   -4.8177986339    3.1690144453
C       -3.3355728355   -4.8946904544   -1.4716640763
C        1.0686214145   -5.3725029315    1.9412755530
C       -3.7733200321   -6.5056967326    0.1792807704
C       -4.0133681994   -6.1338636571   -1.1177078828
C       -2.5758945630   -4.3762083332   -0.4440670977
C        0.7222556137   -3.4988699988    3.4337165498
C       -0.1367493944   -3.3637042003    1.3069264574
C       -1.8558197225   -3.1092718631   -0.4969829350
C       -0.8855133087   -2.6259284124    0.3053439557
N       -5.5076616602   -7.4764752275   -2.7612093255
N        0.0400095298   -2.8013014633    2.4634561169
N        0.3726225265   -4.6249799570    0.9922429027
O        0.8736355137   -3.0044589307    4.5374336888
S       -2.7159426572   -5.3751169665    1.0130741879
H        1.7678008187   -5.3283847764    3.9653116338
H       -3.4332551031   -4.4289449885   -2.4468894627
H        1.4600605978   -6.3639721903    1.7250463555
H       -4.1878022985   -7.3928468433    0.6445789168
H       -2.1554053116   -2.4462806234   -1.3024995297
H       -0.7002593001   -1.5592207810    0.2909654752
H        0.1889028067   -4.9711770778    0.0577107669
23   

C       -4.5228331872   -7.0162357926   -1.9715380298
C        1.3195742803   -4.8922023250    3.0939028878
C       -3.1738407547   -4.9317808196   -1.4118557403
C        0.9534951407   -5.4574064423    1.9139540692
C       -3.8232379466   -6.3840162482    0.3162187058
C       -3.8674363595   -6.1555188675   -1.0349424703
C       -2.6029852662   -4.2822133003   -0.3396613593
C        0.9607219319   -3.5208707825    3.3652713317
C       -0.1089129158   -3.3515291569    1.3382196279
C       -1.8925396744   -3.0039293597   -0.3854846690
C       -0.8861604128   -2.5637883956    0.3957690864
N       -5.0506488893   -7.7195626453   -2.7349523506
N        0.2484426766   -2.7816644747    2.4486362883
N        0.2331226459   -4.6672534141    1.0196353717
O        1.2792490667   -3.0170990711    4.4284548691
S       -2.9378892625   -5.1323757796    1.1779801319
H        1.8753217281   -5.4328831123    3.8468024683
H       -3.1239229869   -4.5720773529   -2.4345385541
H        1.2186142064   -6.4887779483    1.6926047605
H       -4.2828058012   -7.2360692601    0.8043946114
H       -2.2037149554   -2.3262932279   -1.1743031476
H       -0.6739531283   -1.5019061133    0.4014583636
H       -0.0945315029   -5.0187526368    0.1270950103
23   

C       -4.2282376026   -7.1190984654   -2.0250294654
C        1.2577009603   -5.1056381065    3.0551968913
C       -3.0406647212   -4.9613266818   -1.3832767003
C        0.7177130330   -5.6378566264    1.9280621522
C       -3.9488699426   -6.3233763167    0.3015796205
C       -3.7635034856   -6.1807777065   -1.0497605348
C       -2.6858893365   -4.2274822960   -0.2751960064
C        1.0649581821   -3.7040792406    3.3402728601
C       -0.1810967594   -3.4375587193    1.4265596897
C       -1.9832621180   -2.9375394695   -0.2452337877
C       -0.9595047789   -2.5737040771    0.5508525503
N       -4.5999134009   -7.8857977168   -2.8187053245
N        0.3403786869   -2.9019097431    2.4882687125
N       -0.0084424992   -4.7841395865    1.0996600840
O        1.5397944940   -3.2283997233    4.3571032445
S       -3.2527822765   -4.9926459002    1.2173615833
H        1.8324867226   -5.6949551851    3.7554282310
H       -2.8148908225   -4.6659540767   -2.4030401102
H        0.8549463801   -6.6917218689    1.6966218744
H       -4.4683317917   -7.1577584316    0.7595130796
H       -2.2951424182   -2.2098179493   -0.9878622956
H       -0.7124316515   -1.5208776560    0.6098069014
H       -0.4623227313   -5.1059421414    0.2518528429
23   

C       -3.9333102869   -7.2305977300   -2.0033858099
C        1.2347082186   -5.2063459873    2.9790533347
C       -2.8995899590   -5.0004519707   -1.3428390895
C        0.5452745985   -5.7244258453    1.9297235481
C       -4.0413168123   -6.2664609666    0.2734867870
C       -3.6460831108   -6.2133112229   -1.0389219668
C       -2.7462589441   -4.1799471092   -0.2514413885
C        1.1779455217   -3.7868526122    3.2326679079
C       -0.2236585181   -3.4724348179    1.4362750741
C       -2.0581094473   -2.8783394278   -0.1748922471
C       -1.0065030573   -2.5665569438    0.6048532534
N       -4.1598892179   -8.0617244091   -2.7867222944
N        0.4383163933   -2.9526301771    2.4253735808
N       -0.1926282716   -4.8383766088    1.1472548944
O        1.7860886992   -3.3226858200    4.1816015124
S       -3.5228354191   -4.8554574097    1.1873127798
H        1.8307436044   -5.8201148591    3.6393407794
H       -2.5115295374   -4.7728141781   -2.3308678102
H        0.5778557846   -6.7916496571    1.7223080431
H       -4.6128401365   -7.0813193550    0.7039700222
H       -2.4007109411   -2.1113348380   -0.8624606482
H       -0.7242881254   -1.5233818005    0.6778900451
H       -0.7504743416   -5.1454905801    0.3576183194
23   

C       -3.6704425007   -7.2728112056   -1.9714198823
C        1.2182710157   -5.2202506730    2.9347343802
C       -2.7765390183   -4.9948424775   -1.2708717584
C        0.3846718667   -5.7327607018    1.9928968008
C       -4.1752114468   -6.1849317231    0.1937061602
C       -3.5590810581   -6.1993206619   -1.0318536213
C       -2.8224693223   -4.1126633279   -0.2195892088
C        1.2832925628   -3.7908471083    3.1203836727
C       -0.2784343491   -3.4544669994    1.4642340023
C       -2.1545817800   -2.8016113928   -0.0838936948
C       -1.0762537401   -2.5252193828    0.6711194538
N       -3.7542729896   -8.1499426077   -2.7324685700
N        0.5186704343   -2.9419717974    2.3527234283
N       -0.3745542341   -4.8310973140    1.2496411940
O        2.0219766210   -3.3299187795    3.9734705854
S       -3.8293289376   -4.7176366545    1.1009379968
H        1.8419857360   -5.8455855287    3.5575131695
H       -2.2203982151   -4.8170385220   -2.1864325554
H        0.3239958268   -6.8075258009    1.8372256519
H       -4.8091250065   -6.9827764038    0.5648392293
H       -2.5546115071   -1.9916404502   -0.6859212926
H       -0.7701888614   -1.4888363851    0.7464656041
H       -1.0262968726   -5.1314930949    0.5324301974
23   

C       -3.4694125643   -7.3206270271   -1.9299217196
C        1.2408961772   -5.2510600347    2.8713221787
C       -2.6725533988   -5.0250371743   -1.1718906399
C        0.2715161830   -5.7558730798    2.0649848226
C       -4.3526544277   -6.1228717286    0.0478564156
C       -3.5138649044   -6.2053338820   -1.0345320935
C       -2.8957445726   -4.0950196936   -0.1864710050
C        1.4129562389   -3.8215613613    2.9615152860
C       -0.3093271023   -3.4699540738    1.4755357435
C       -2.2448063262   -2.7825088333    0.0095313721
C       -1.1350841041   -2.5282283785    0.7258710696
N       -3.4280928042   -8.2321195486   -2.6530936182
N        0.6150977907   -2.9659276634    2.2366956099
N       -0.5157469002   -4.8463163497    1.3612500768
O        2.2752640453   -3.3659041537    3.6927909295
S       -4.1521855932   -4.6187275968    0.9387924208
H        1.8960993789   -5.8825553404    3.4542669328
H       -1.9511444630   -4.8957087292   -1.9734613046
H        0.1286787687   -6.8309645735    1.9826246577
H       -5.0645806101   -6.8927342951    0.3248300662
H       -2.7247607596   -1.9338988994   -0.4680676765
H       -0.8142547138   -1.4958342544    0.7957232885
H       -1.2589316419   -5.1411513187    0.7366956868
23   

C       -3.7552119276   -7.7365166135   -0.6902735524
C        1.0851354976   -4.9767841691    3.3214263722
C       -2.5894590470   -5.4736829018   -0.6759292652
C       -0.0743880734   -5.4539636776    2.7991141611
C       -4.7087090783   -5.6847258455    0.3131121555
C       -3.7075504028   -6.3473253553   -0.3504977945
C       -2.7725535376   -4.1859538662   -0.2321593216
C        1.6379480385   -3.7464594717    2.8101040778
C       -0.0988747109   -3.5290656481    1.3150459781
C       -1.8844894846   -3.0202834267   -0.3997262297
C       -0.7333249351   -2.7612427496    0.2483604353
N       -3.7925972964   -8.8688458815   -0.9584761665
N        1.0095655392   -3.0551788954    1.7997372386
N       -0.6738608429   -4.7122674026    1.7825164197
O        2.6752441705   -3.3127496276    3.2811902191
S       -4.3320621112   -3.9852333073    0.5712413827
H        1.6169408431   -5.4860237263    4.1124862400
H       -1.7105450007   -5.8056916250   -1.2212639452
H       -0.5047996381   -6.3809633880    3.1711542999
H       -5.6322178878   -6.1502204616    0.6397176987
H       -2.2359797181   -2.2523068980   -1.0818681920
H       -0.2009765007   -1.8596977822   -0.0302034744
H       -1.5365941044   -5.0030396322    1.3349188637
23   

C       -3.6029701332   -7.7541913357   -0.5877830897
C        1.0941636939   -5.0337899584    3.2812144054
C       -2.5249155558   -5.4493830146   -0.5191816932
C       -0.1516953597   -5.4057820756    2.8878483111
C       -4.7920798766   -5.6783017465    0.0459684652
C       -3.6613968226   -6.3437210081   -0.3538918265
C       -2.8244022789   -4.1413877275   -0.2150606391
C        1.7082884717   -3.8739410370    2.6827196134
C       -0.1377417742   -3.5210803099    1.3537813862
C       -1.9631928950   -2.9534870915   -0.3040592833
C       -0.7985019569   -2.7169289226    0.3317428923
N       -3.5565661530   -8.9034247501   -0.7684969541
N        1.0513351166   -3.1451426872    1.7180585231
N       -0.7754622026   -4.6301508028    1.9117423361
O        2.8246231753   -3.5353688315    3.0364863639
S       -4.5195869022   -3.9509142803    0.2420248082
H        1.6509026960   -5.5764156014    4.0319180887
H       -1.5483331213   -5.7817689927   -0.8601976927
H       -0.6294145252   -6.2783418324    3.3276830322
H       -5.7492354966   -6.1578298520    0.2192463010
H       -2.3547019251   -2.1326849547   -0.8970812495
H       -0.2640694281   -1.8140146962    0.0617228027
H       -1.7003008562   -4.8464696951    1.5552215720
23   

C       -3.4685950600   -7.7663292290   -0.4758917134
C        1.0868257643   -5.0761786335    3.2447549884
C       -2.4823082770   -5.4226054995   -0.3641021240
C       -0.2202803199   -5.3405947904    2.9858378587
C       -4.8085557119   -5.7018656268   -0.2190447141
C       -3.6062979997   -6.3472497187   -0.3543957695
C       -2.8655498282   -4.1085318843   -0.2097524275
C        1.7386037586   -3.9883381630    2.5573047203
C       -0.1899423612   -3.4997039706    1.4005939827
C       -2.0469325253   -2.8938293911   -0.2077348503
C       -0.8758102927   -2.6647782064    0.4223335443
N       -3.3603630605   -8.9222375160   -0.5642426805
N        1.0564953149   -3.2229025649    1.6396192900
N       -0.8671634644   -4.5304859935    2.0535964604
O        2.9104031765   -3.7464668169    2.7902776693
S       -4.6216987119   -3.9569190464   -0.0924906118
H        1.6655568373   -5.6531555379    3.9519920561
H       -1.4518350641   -5.7408115771   -0.4964452178
H       -0.7269360848   -6.1575979036    3.4946716638
H       -5.7685009946   -6.2057372985   -0.1951585898
H       -2.4690539882   -2.0442240053   -0.7356031707
H       -0.3459402216   -1.7559157617    0.1637851931
H       -1.8361496399   -4.6734574500    1.7895529554
23   

C       -3.3752714339   -7.7451773941   -0.3911711409
C        1.0753188076   -5.1310646915    3.2318512663
C       -2.4412403317   -5.3836753447   -0.2239680427
C       -0.2690600283   -5.2750168513    3.0992620828
C       -4.7514690323   -5.6921030240   -0.5023246262
C       -3.5416801688   -6.3240655471   -0.3755590534
C       -2.8520739020   -4.0671543493   -0.2180395087
C        1.7588044462   -4.1200105816    2.4624831373
C       -0.2127923693   -3.4778398232    1.4662849333
C       -2.0786683971   -2.8324699897   -0.1094899704
C       -0.9083155720   -2.6098224394    0.5268110390
N       -3.2461551472   -8.9023738957   -0.3931685256
N        1.0694314680   -3.3116365792    1.5879680546
N       -0.9217465011   -4.4230173052    2.2092409623
O        2.9641315541   -3.9851597095    2.5839725467
S       -4.6012198652   -3.9406977998   -0.4369858239
H        1.6610786857   -5.7492240096    3.8973239945
H       -1.4042186020   -5.6980440636   -0.1472434128
H       -0.7996247461   -6.0325033370    3.6719001091
H       -5.6958579203   -6.2092124831   -0.6306877701
H       -2.5182084171   -1.9635033296   -0.5894130330
H       -0.3789714476   -1.6956640079    0.2871166946
H       -1.9189977909   -4.4820371103    2.0342992540
23   

C       -3.3552929856   -7.7593595112   -0.2896339089
C        1.1121030244   -5.1184328923    3.1725684281
C       -2.4615479542   -5.3848054074   -0.0935134659
C       -0.2449202433   -5.1859300498    3.1733249560
C       -4.6903799230   -5.7274859442   -0.7452777124
C       -3.5206912731   -6.3409574068   -0.3806757323
C       -2.8626177378   -4.0713657039   -0.2335140624
C        1.7741768340   -4.1667116895    2.3137425358
C       -0.2443472257   -3.4402528132    1.4857054833
C       -2.1511503952   -2.8123542944   -0.0390065839
C       -0.9804318030   -2.5647851851    0.5881849028
N       -3.2284574495   -8.9137699673   -0.2049581344
N        1.0503889091   -3.3431205635    1.4824257290
N       -0.9321501328   -4.3186728684    2.3246609134
O        2.9910692513   -4.0973976358    2.3193875893
S       -4.5509970617   -3.9746212106   -0.7499582676
H        1.7238707225   -5.7543823575    3.7966473228
H       -1.4560556079   -5.6954779729    0.1726318904
H       -0.7588752648   -5.8971119198    3.8162305079
H       -5.5997045533   -6.2584501426   -1.0036533929
H       -2.6229696482   -1.9418782638   -0.4842545859
H       -0.4775376599   -1.6337476865    0.3573516151
H       -1.9435746106   -4.3180992679    2.2537171907
23   

C       -4.2477780313   -7.2419952649    1.0210057246
C        1.1406847896   -4.9920460459    3.1331695602
C       -2.8716326808   -5.1600315869    0.5250979608
C        0.8165873358   -5.5764553117    1.9500026657
C       -4.6215096630   -5.7575108110   -0.9213349722
C       -3.9433188695   -6.0964771932    0.2193480620
C       -2.7604361569   -4.1385743421   -0.3980093149
C        0.8371733297   -3.5969163215    3.3422471305
C       -0.1175321806   -3.4461959154    1.2568157859
C       -1.8372076573   -3.0165727477   -0.5262728872
C       -0.7948012423   -2.6493256930    0.2501564303
N       -4.4898760798   -8.1820291241    1.6642879112
N        0.2040738232   -2.8588380565    2.3688498706
N        0.1905075118   -4.7814702941    0.9901659157
O        1.1400728774   -3.0679437175    4.3977222025
S       -3.9854283735   -4.2970512148   -1.6643916545
H        1.6246439025   -5.5340441536    3.9333318936
H       -2.2621681363   -5.2632725022    1.4155955466
H        1.0424228346   -6.6263341691    1.7766494234
H       -5.4560135234   -6.3215228532   -1.3223944541
H       -2.0600636448   -2.3288704848   -1.3361467530
H       -0.4686815836   -1.6180866616    0.1977629170
H       -0.0859244068   -5.1425762330    0.0842876075
23   

C       -4.3456687938   -7.2065921494    1.0165576443
C        1.1493364471   -5.1448562088    3.1446965736
C       -2.9887915372   -5.0920913774    0.6121712844
C        0.6615861554   -5.7020047611    2.0054989223
C       -4.4364548420   -5.8709361152   -1.0634405934
C       -3.9524975315   -6.1010126344    0.1976435832
C       -2.7571932226   -4.1329223614   -0.3532039301
C        0.9871044034   -3.7285664322    3.3671092125
C       -0.1470660523   -3.4997202061    1.3798474671
C       -1.8789630934   -2.9677805115   -0.3733213505
C       -0.8476421005   -2.6432061208    0.4367715884
N       -4.6591737668   -8.1144031413    1.6749750010
N        0.3281361197   -2.9410598952    2.4512407597
N        0.0161260404   -4.8579835881    1.1023408720
O        1.4331018001   -3.2250757900    4.3835985341
S       -3.7407283365   -4.4298690018   -1.7923464217
H        1.6610440302   -5.7245988273    3.8998256436
H       -2.5330628038   -5.0952841644    1.5973948262
H        0.7772513276   -6.7680323031    1.8225767988
H       -5.1662015964   -6.5018913470   -1.5583323304
H       -2.0998821356   -2.2368147340   -1.1449900385
H       -0.5303572754   -1.6077466682    0.4502667598
H       -0.3898205643   -5.1981078642    0.2377356379
23   

C       -4.4320142113   -7.1519917607    1.0106506682
C        1.1813057381   -5.1948901378    3.1099537985
C       -3.0935323135   -5.0179580772    0.6481615753
C        0.5562214787   -5.7427223350    2.0353374565
C       -4.2338955269   -5.9843845300   -1.1616471708
C       -3.9476777778   -6.0968830807    0.1741954882
C       -2.7394096104   -4.1317516525   -0.3474070289
C        1.1247466423   -3.7673659808    3.3106816535
C       -0.1676781768   -3.5057717424    1.4256882334
C       -1.9239268504   -2.9207490960   -0.2930981808
C       -0.8934295161   -2.6200102662    0.5264911410
N       -4.8192963812   -8.0187445408    1.6848393418
N        0.4351482055   -2.9580650772    2.4371952085
N       -0.1179473706   -4.8777438953    1.1743252897
O        1.6897073999   -3.2728754785    4.2709192012
S       -3.4763191855   -4.5745502562   -1.8915244280
H        1.7256232205   -5.7904635830    3.8290508134
H       -2.7912965287   -4.9190537214    1.6869112219
H        0.5890407647   -6.8172485453    1.8694564384
H       -4.8577352841   -6.6817994154   -1.7095402781
H       -2.1652730445   -2.1628390017   -1.0319811154
H       -0.5808670124   -1.5838498298    0.5714307945
H       -0.6301635742   -5.2091073848    0.3641215948
23   

C       -4.5631195607   -7.1270982434    0.9421662145
C        1.2296339716   -5.2057498270    3.0988487800
C       -3.2334060344   -4.9750175438    0.6618855109
C        0.4529107049   -5.7562742744    2.1297704841
C       -4.0185220328   -6.1005686409   -1.2426006402
C       -3.9655093764   -6.1138180593    0.1275272186
C       -2.7324729784   -4.1487683126   -0.3200279454
C        1.2809074857   -3.7705848753    3.2347181672
C       -0.1947850549   -3.5039987166    1.4890553073
C       -1.9857242357   -2.8952032933   -0.1915814842
C       -0.9538577988   -2.6053614509    0.6283814100
N       -5.0421395664   -7.9590799300    1.6009449519
N        0.5484637622   -2.9556468293    2.4024341739
N       -0.2625817847   -4.8861299239    1.3083426307
O        1.9800719998   -3.2736392980    4.1008060313
S       -3.1803259400   -4.7157339188   -1.9321198778
H        1.8173459073   -5.8045137925    3.7800926535
H       -3.1126840835   -4.7922245337    1.7261506325
H        0.4020802286   -6.8365948552    2.0138879043
H       -4.5215785763   -6.8546631105   -1.8377714653
H       -2.2609295288   -2.1130509074   -0.8924122127
H       -0.6471103961   -1.5680393361    0.6876714900
H       -0.8795612766   -5.2165251263    0.5739867847
23   

C       -4.6799160376   -7.1499866589    0.8446421888
C        1.2663768396   -5.1186812003    3.0682261747
C       -3.4030798713   -4.9573501548    0.6419725328
C        0.3647911099   -5.6876509715    2.2263874588
C       -3.7675233881   -6.2601463985   -1.2768443598
C       -3.9760522788   -6.1697248289    0.0757430151
C       -2.7580089119   -4.1824417872   -0.2941928628
C        1.3869062656   -3.6818994166    3.1097829579
C       -0.2599315744   -3.4483501590    1.5186191384
C       -2.1036579184   -2.8780463272   -0.1179319999
C       -1.0712571609   -2.5638417472    0.6896178942
N       -5.2452606871   -7.9539241120    1.4688350087
N        0.5986367192   -2.8833786860    2.3133508875
N       -0.4044791896   -4.8341642960    1.4369249209
O        2.1981373233   -3.1685745438    3.8610397656
S       -2.8669802618   -4.8872081683   -1.9098108890
H        1.9041568212   -5.7036852022    3.7154999478
H       -3.4897668955   -4.6897376417    1.6914284487
H        0.2597775749   -6.7693690086    2.1829080666
H       -4.1193861125   -7.0813262546   -1.8916419805
H       -2.4459665153   -2.0876608120   -0.7788296781
H       -0.7898541867   -1.5191369805    0.7460857504
H       -1.1072748205   -5.1779567920    0.7910802158
23   

C       -4.8042798813   -7.1365140529    0.7140340283
C        1.3262354513   -5.0769465340    3.0225931623
C       -3.5629973988   -4.9164579333    0.6134062142
C        0.3048773172   -5.6369075561    2.3238149284
C       -3.5020794670   -6.3560749849   -1.2407018331
C       -3.9818431877   -6.1840586718    0.0328603456
C       -2.7661642862   -4.1809535933   -0.2308747392
C        1.5244361747   -3.6493487232    2.9641795153
C       -0.2791440305   -3.4063576236    1.5545376412
C       -2.1811597213   -2.8446548457   -0.0123259082
C       -1.1349829466   -2.5214048686    0.7707805541
N       -5.4666025738   -7.9165140615    1.2693972488
N        0.6910844752   -2.8499884377    2.2157858166
N       -0.5053180093   -4.7838436424    1.5762591925
O        2.4441835282   -3.1448976213    3.5851508600
S       -2.5246112721   -4.9953093451   -1.7788749597
H        2.0038823261   -5.6625327557    3.6274076466
H       -3.8600195836   -4.5858884242    1.6046731896
H        0.1394150042   -6.7113736573    2.3575586554
H       -3.7036427571   -7.2283946809   -1.8527924945
H       -2.6076999364   -2.0393362349   -0.6023904546
H       -0.8638516106   -1.4739343185    0.8261996751
H       -1.2924327565   -5.1211747046    1.0323306214
23   

C       -4.9088979445   -7.1294893920    0.5618243077
C        1.3770525346   -5.0743104315    2.9617510266
C       -3.7145291590   -4.8816015735    0.5658232904
C        0.2468429675   -5.6031971207    2.4254564024
C       -3.2487338098   -6.4315743014   -1.1361221539
C       -3.9828358504   -6.1953522818   -0.0015341535
C       -2.7823596848   -4.1728936296   -0.1513889512
C        1.6527342388   -3.6690595792    2.7871306530
C       -0.2889219049   -3.3862499543    1.5838042549
C       -2.2549737479   -2.8167435636    0.1081130942
C       -1.1828331683   -2.4930368062    0.8531899286
N       -5.6559512289   -7.8935012300    1.0241011177
N        0.7837248721   -2.8586564218    2.0927639156
N       -0.5940459680   -4.7418018942    1.7231656848
O        2.6715295376   -3.1942714046    3.2589291993
S       -2.2070421523   -5.0767433997   -1.5553363222
H        2.0859687219   -5.6687448256    3.5203114387
H       -4.2060153392   -4.5044441695    1.4579389052
H        0.0213285567   -6.6600344067    2.5489353579
H       -3.3040203311   -7.3463929396   -1.7160296003
H       -2.7864576228   -1.9977674535   -0.3666501185
H       -0.9117435739   -1.4454620566    0.9055941319
H       -1.4581477246   -5.0565339531    1.2946909807
23   

C       -5.0113500332   -7.1115614148    0.3768242411
C        1.4320383992   -5.0576710629    2.9149249628
C       -3.8395716203   -4.8549817108    0.4941284008
C        0.2199104541   -5.5493211392    2.5493599958
C       -3.0557915314   -6.4848125434   -1.0048498043
C       -3.9942990466   -6.1982285278   -0.0462578805
C       -2.7893796781   -4.1723635583   -0.0686024057
C        1.7610035328   -3.6862366005    2.6102409541
C       -0.2876988578   -3.3639376063    1.6132704048
C       -2.3132658330   -2.8046981986    0.2249111366
C       -1.2142037863   -2.4712279298    0.9249885105
N       -5.8337176177   -7.8576552865    0.7270203213
N        0.8621320527   -2.8701039170    1.9617857498
N       -0.6493965054   -4.6847931407    1.8869785043
O        2.8530089652   -3.2468797439    2.9270319066
S       -1.9525800646   -5.1432276190   -1.2854529164
H        2.1683287536   -5.6576261695    3.4305293384
H       -4.4905260711   -4.4411207202    1.2584172885
H       -0.0464910964   -6.5799663050    2.7725983165
H       -2.9984853513   -7.4282321529   -1.5366564191
H       -2.9372027535   -1.9900288394   -0.1293920941
H       -0.9428672325   -1.4231424848    0.9615584042
H       -1.5698652405   -4.9746714303    1.5737602309
23   

C       -5.8346435764   -6.1549159537    0.4991603125
C        0.9844078634   -5.0638540380    3.3166144636
C       -4.0805507456   -4.3326850754    0.2144114976
C       -0.3495884999   -5.2171468216    3.1122290137
C       -3.5479489091   -6.5467450425   -0.3627401686
C       -4.5253579392   -5.7163598008    0.1236587692
C       -2.7808332314   -4.1613058387   -0.1969907950
C        1.7127344368   -4.0891975024    2.5406712813
C       -0.1990066097   -3.4865599204    1.4126376113
C       -1.9946726664   -2.9152065596   -0.2496634384
C       -0.8463385153   -2.6578933702    0.4031810305
N       -6.8975736835   -6.5124634090    0.8123136002
N        1.0742833894   -3.3127308458    1.6003618613
N       -0.9467204319   -4.4112777193    2.1448356638
O        2.9122402943   -3.9597141609    2.7144060804
S       -2.0566273047   -5.6866055768   -0.7246140469
H        1.5290935355   -5.6481844921    4.0445055149
H       -4.7155413716   -3.5257674979    0.5669475496
H       -0.9150615967   -5.9455174998    3.6890874653
H       -3.6754757385   -7.6130054028   -0.5136529935
H       -2.4192040162   -2.1021268769   -0.8302636422
H       -0.2981537194   -1.7654202154    0.1271753783
H       -1.9330805091   -4.4759278724    1.9169074829
23   

C       -5.8965424270   -6.1721894149    0.1937715179
C        1.1152175387   -5.0131051564    3.2690774227
C       -4.1349359169   -4.3387818612    0.0778744917
C       -0.2400185146   -5.0860341492    3.2116934771
C       -3.4976429409   -6.5741315902   -0.2624285678
C       -4.5473962920   -5.7336168088    0.0065983033
C       -2.7846445017   -4.1673659525   -0.1217583624
C        1.8153098017   -4.1168139306    2.3806422422
C       -0.1642190582   -3.4393653935    1.4274796003
C       -2.0392274859   -2.9018557203   -0.1500222404
C       -0.8660428283   -2.6210437912    0.4493075904
N       -6.9933932202   -6.5290983721    0.3532284814
N        1.1294680185   -3.3387789164    1.4758325674
N       -0.8869119792   -4.2792514709    2.2773390711
O        3.0320418214   -4.0589121272    2.4241702664
S       -1.9748926859   -5.7105088084   -0.4341046473
H        1.6977603671   -5.6051182444    3.9605696187
H       -4.8279668571   -3.5242498669    0.2633026856
H       -0.7838187690   -5.7544932191    3.8753754099
H       -3.5901459651   -7.6498015221   -0.3630067432
H       -2.5170634712   -2.0813811546   -0.6761784900
H       -0.3397350760   -1.7266034805    0.1395598212
H       -1.8934955602   -4.2897702930    2.1547733608
23   

C       -5.9319393833   -6.2207443600   -0.1140103562
C        1.2341177730   -4.8250112710    3.2012500834
C       -4.2153092511   -4.3427267752   -0.0492620077
C       -0.1191427142   -4.8323006472    3.3211978276
C       -3.4827193853   -6.5730265283   -0.1255721319
C       -4.5801577856   -5.7517403163   -0.0963080195
C       -2.8534702361   -4.1378474805   -0.0185599096
C        1.8517555665   -4.0099340096    2.1828505469
C       -0.2031923946   -3.2878630596    1.4497022452
C       -2.1759453275   -2.8410428053   -0.0274044152
C       -0.9928834490   -2.4976805937    0.5197457641
N       -7.0322244632   -6.6020179598   -0.1220252363
N        1.0887942737   -3.2462271818    1.3292556402
N       -0.8468068975   -4.0423732902    2.4325979073
O        3.0651528274   -4.0120108004    2.0676664899
S       -1.9722131282   -5.6728889170   -0.0915696726
H        1.8752869858   -5.4107905347    3.8445335516
H       -4.9483633822   -3.5424885219   -0.0469045007
H       -0.6001889019   -5.4386843048    4.0853338973
H       -3.5337766430   -7.6551970067   -0.1681332337
H       -2.7132098643   -2.0384666532   -0.5228547058
H       -0.5224730687   -1.5829380716    0.1811963784
H       -1.8598133096   -4.0069214499    2.4423066270
23   

C       -5.9315958396   -6.2359980769   -0.4632138787
C        1.3109993867   -4.8467053951    3.1953093009
C       -4.2299689834   -4.3649982741   -0.1762789131
C       -0.0143806971   -4.7353058511    3.4729717492
C       -3.5331871246   -6.5981269398    0.0232548241
C       -4.6017382215   -5.7724565674   -0.2097993904
C       -2.8970837661   -4.1595119234    0.1108217185
C        1.8607273774   -4.1411605049    2.0625806282
C       -0.2077498452   -3.2956562852    1.5286718392
C       -2.2385632864   -2.8584407586    0.1328959242
C       -1.0451988291   -2.5009424778    0.6484871620
N       -7.0150970259   -6.6127460725   -0.6639389461
N        1.0596141750   -3.3650603764    1.2566845841
N       -0.7833431139   -3.9372919697    2.6270169876
O        3.0475177888   -4.2499046541    1.8071716097
S       -2.0452154110   -5.7025576331    0.2971034432
H        1.9794458986   -5.4482393319    3.7948376482
H       -4.9376958360   -3.5653579511   -0.3691286379
H       -0.4429901344   -5.2577789335    4.3252157857
H       -3.5917592629   -7.6805902732    0.0355793900
H       -2.7892608892   -2.0568822136   -0.3491513026
H       -0.5975524129   -1.5783292486    0.3010798472
H       -1.7806795546   -3.8134414696    2.7570121321
23   

C       -5.0528668777   -6.7210199134   -1.8896573371
C        1.3220205955   -4.8191561175    3.2559572054
C       -3.3874579789   -4.8600859352   -1.3969714360
C        1.2890793383   -5.3436588889    2.0029373082
C       -3.6064304072   -6.6414668429    0.1150824157
C       -4.0491219996   -6.1149665713   -1.0693927545
C       -2.4381355974   -4.4809708586   -0.4702372340
C        0.6715956428   -3.5569911260    3.5145593590
C       -0.0332993561   -3.4227487443    1.3320352686
C       -1.7053181007   -3.2237986619   -0.5244066598
C       -0.7606210701   -2.7164126152    0.2939963317
N       -5.8663727901   -7.2168916899   -2.5594365086
N        0.0057402416   -2.8872986265    2.5138271819
N        0.6086991031   -4.6231428687    1.0220119648
O        0.7016081860   -3.0864963082    4.6384980333
S       -2.3714223659   -5.6421942237    0.8672292982
H        1.8229682393   -5.3121006584    4.0770417117
H       -3.6349886021   -4.2811677743   -2.2807033796
H        1.7783552787   -6.2917730090    1.7915392641
H       -3.9746089588   -7.5656535209    0.5458056641
H       -2.0051694634   -2.5604925232   -1.3295170127
H       -0.5914369238   -1.6473525402    0.2685504670
H        0.5356162683   -4.9469724352    0.0647402946
