24   

C       -0.6266502215    1.2028809857   -0.0577434867
C        0.5635715259    0.6605188954    0.3739303750
C        1.5239331323    1.4391078584    1.2314323659
C       -1.5719742166    0.4568074187   -0.9496914894
C       -0.1021151104   -1.5102842419   -0.6668516948
C        3.6711414425    1.7676148312    2.4032453196
C        3.6130881623    0.3968788639    0.3270210440
N        0.8921958352   -0.6570094359   -0.0218197457
N       -0.8539483128   -0.6587720537   -1.5823057305
N        2.8787597611    1.0942235616    1.3782649393
O        1.1567470494    2.4617990752    1.8123676603
H       -0.8634848079    2.2256447309    0.2111901922
H       -2.4086410704    0.0769282607   -0.3542689250
H       -1.9692509545    1.1316263151   -1.7149570584
H        0.3943133623   -2.3101964634   -1.2249865443
H       -0.7686140318   -1.9526108372    0.0815566213
H        4.6112730055    1.2340831921    2.5750961578
H        3.1254834683    1.7894599522    3.3525181640
H        3.8944054219    2.7945127705    2.0967117978
H        4.6047214821    0.8432751671    0.2010446840
H        3.1076077631    0.4924984796   -0.6395132801
H        3.7341833137   -0.6611191561    0.5771702520
H        1.7502045405   -1.0796824255    0.3129339712
H       -1.4588530056   -1.2016573729   -2.1891490423
24   

C       -0.5837061741    1.1872411348   -0.0963865476
C        0.5506660577    0.6066449144    0.4227074343
C        1.4836639374    1.3522963927    1.3368038258
C       -1.5004124684    0.4544275031   -1.0285298662
C       -0.1435238374   -1.5662041888   -0.5864168101
C        3.6792719171    1.7440067449    2.3984600639
C        3.5597473057    0.4759731487    0.2530447532
N        0.8437611481   -0.7366878973    0.0991048189
N       -0.7935591229   -0.7127986931   -1.5762689831
N        2.8633410042    1.0953342502    1.3769328129
O        1.0593535571    2.2477287168    2.0704236607
H       -0.7932767882    2.2242337149    0.1379842207
H       -2.3919497088    0.1318566873   -0.4808152960
H       -1.8135853385    1.1200997017   -1.8394630292
H        0.3516742199   -2.4050534059   -1.0853424604
H       -0.8777988334   -1.9541224117    0.1279834619
H        4.6608185439    1.2647089820    2.4681727955
H        3.1998817232    1.6598231558    3.3794561693
H        3.8163593875    2.8030097656    2.1577901675
H        4.5067400008    0.9925132033    0.0667522829
H        2.9764932626    0.5554986750   -0.6701505136
H        3.7678656691   -0.5773506878    0.4623104414
H        1.6624177286   -1.1813395659    0.4995115534
H       -1.3819599196   -1.2493977308   -2.2046053726
24   

C       -0.5322688567    1.1806805664   -0.1305682662
C        0.5351287807    0.5561018168    0.4694374941
C        1.4516438287    1.2601362917    1.4344762790
C       -1.4249229876    0.4668982453   -1.1002479725
C       -0.2018481719   -1.6070999851   -0.5226982059
C        3.6835138994    1.7175069407    2.3953837790
C        3.4983037058    0.5576456313    0.1876909813
N        0.7783466581   -0.8100112868    0.2099143187
N       -0.7435631796   -0.7482227022   -1.5725873399
N        2.8433800110    1.1009217004    1.3744505006
O        0.9954407656    2.0015302817    2.3081198512
H       -0.7030589126    2.2315092880    0.0700667644
H       -2.3635224660    0.2026836715   -0.6021036396
H       -1.6538668749    1.1236003523   -1.9458922041
H        0.2827560968   -2.4808586650   -0.9693896301
H       -0.9995858830   -1.9417731091    0.1493224474
H        4.6861293428    1.2786064550    2.3833713793
H        3.2616063701    1.5493752412    3.3918175593
H        3.7645276730    2.7946332694    2.2185994759
H        4.3952362641    1.1399465931   -0.0459818454
H        2.8497263760    0.6170817291   -0.6923322975
H        3.7854296801   -0.4850953065    0.3517797870
H        1.5503663151   -1.2806969901    0.6698518238
H       -1.3170985684   -1.2725910352   -2.2246024700
24   

C       -0.3973503553    1.1799696578   -0.0983909138
C        0.5973904712    0.5102105026    0.5713560688
C        1.5252271129    1.1715821667    1.5594084122
C       -1.2848843613    0.4847780296   -1.0862921437
C       -0.2107365901   -1.6371638490   -0.3898792276
C        3.7978065204    1.7154790518    2.3807183183
C        3.5029081953    0.6642222906    0.1268932259
N        0.7736027556   -0.8744890383    0.3732151711
N       -0.6512671973   -0.7807178487   -1.4892362198
N        2.9135208150    1.1299606714    1.3793668587
O        1.0793556222    1.7413016975    2.5588715580
H       -0.5108547582    2.2455159043    0.0588794636
H       -2.2579683154    0.2880980755   -0.6243502068
H       -1.4388815537    1.1247516778   -1.9612145262
H        0.2467853150   -2.5481655169   -0.7881281583
H       -1.0587802168   -1.9093461993    0.2478715548
H        4.7995305611    1.2809028956    2.3053263129
H        3.4281781764    1.5128706372    3.3913057808
H        3.8674002904    2.7980782460    2.2361616038
H        4.3447771477    1.3052387850   -0.1530847179
H        2.7864573543    0.7082372292   -0.6996392704
H        3.8591981628   -0.3647621760    0.2323940116
H        1.4936353467   -1.3719542978    0.8868173048
H       -1.2214769004   -1.2928343062   -2.1538335615
24   

C       -0.3433199220    1.1944514428   -0.1754033754
C        0.5423535814    0.4744974475    0.5876943028
C        1.4425935155    1.0764774920    1.6407896329
C       -1.1877475159    0.5324185035   -1.2222175782
C       -0.2965351468   -1.6374325939   -0.4152785439
C        3.6977991688    1.7447591098    2.4393461627
C        3.3985933172    0.8547441700    0.1166269015
N        0.6595581958   -0.9197631946    0.4234904522
N       -0.5961482833   -0.7731920178   -1.5564047418
N        2.8178268390    1.1988966026    1.4115540778
O        0.9821644344    1.4307930642    2.7300846279
H       -0.3992513270    2.2682649804   -0.0479475631
H       -2.2037594021    0.3972316632   -0.8368284816
H       -1.2361610243    1.1645156264   -2.1148645475
H        0.1426633311   -2.5767820665   -0.7654212291
H       -1.2090546595   -1.8556499775    0.1501277215
H        4.6843632449    1.2746058188    2.3799108814
H        3.3066595311    1.5502625808    3.4431503378
H        3.8083101387    2.8252392537    2.3056647748
H        4.2101090968    1.5471309388   -0.1281852756
H        2.6642627558    0.9302753061   -0.6915597041
H        3.7956394598   -0.1646684572    0.1378599671
H        1.2884589204   -1.4485571556    1.0194396503
H       -1.1378629127   -1.2636012282   -2.2600872463
24   

C       -0.2040953191    1.2081129268   -0.2401005737
C        0.5522816298    0.4229041400    0.5941232054
C        1.4628698054    0.9444369718    1.6808367798
C       -1.0528596352    0.6019961758   -1.3168782009
C       -0.4132940970   -1.6233784141   -0.4206805931
C        3.6836176335    1.7564209865    2.4460488820
C        3.3399067267    1.0800666880    0.0567830415
N        0.5570680834   -0.9771255633    0.4585257479
N       -0.5713647264   -0.7613561013   -1.5923398636
N        2.7981004092    1.2529646301    1.4013436072
O        1.0346027847    1.0868141815    2.8307007552
H       -0.1551772404    2.2853494826   -0.1441125862
H       -2.0952515138    0.5714808816   -0.9825684928
H       -0.9967547595    1.2132694139   -2.2234026661
H       -0.0432775105   -2.6060357132   -0.7294938662
H       -1.3711329531   -1.7460228847    0.0965543770
H        4.2644598464    0.9346592291    2.8758086030
H        3.1206835126    2.2470296966    3.2465239335
H        4.3701225402    2.5011504596    2.0312979201
H        3.2136363097    1.9990258833   -0.5238385237
H        2.8529666571    0.2557437038   -0.4735698786
H        4.4059219394    0.8374134059    0.1078649636
H        1.0676037386   -1.5433998075    1.1293559400
H       -1.1196765544   -1.2167182933   -2.3142269115
24   

C       -0.0344711174    1.1982773634   -0.2747238576
C        0.6058837515    0.3650198598    0.6095581290
C        1.5434420256    0.8131615410    1.7034987796
C       -0.9245250305    0.6503372091   -1.3493823402
C       -0.5491454623   -1.5987749034   -0.3633448953
C        3.6994745130    1.7720471515    2.4647462810
C        3.3263064632    1.2684514316    0.0350056246
N        0.4682066654   -1.0294209141    0.5154659498
N       -0.5929218416   -0.7668525822   -1.5666465712
N        2.8190954195    1.2983704937    1.4029828451
O        1.1720612201    0.7613147259    2.8814887559
H        0.1317244026    2.2663205297   -0.2155497436
H       -1.9698955777    0.7469380779   -1.0374542081
H       -0.7846942112    1.2181476223   -2.2748639262
H       -0.2809880902   -2.6255458429   -0.6311588997
H       -1.5238504908   -1.6004339227    0.1366614181
H        4.2935348658    0.9427648429    2.8608431506
H        3.1242149662    2.2197801647    3.2817211610
H        4.3740665385    2.5440028688    2.0813758800
H        3.1084463682    2.2130651986   -0.4725297309
H        2.8857144853    0.4457148059   -0.5376636300
H        4.4090855241    1.1082843266    0.0374341277
H        0.8677645245   -1.6114737201    1.2463489045
H       -1.1754897029   -1.1862672101   -2.2834269679
24   

C        0.1730805055    1.0860929404   -0.3130459958
C        0.7567213743    0.2566022718    0.6147046717
C        1.7321722618    0.6823427529    1.6804015370
C       -0.7863992259    0.5533361270   -1.3346037765
C       -0.5964163062   -1.6498518399   -0.2000739584
C        3.8049111879    1.8118374361    2.4265315502
C        3.3852417498    1.4351360266   -0.0171613624
N        0.4925131938   -1.1199295279    0.6146648935
N       -0.5971427349   -0.9005028190   -1.4573250757
N        2.9265744313    1.3360473319    1.3642071266
O        1.4479138240    0.4733786721    2.8664909325
H        0.4238468189    2.1389862794   -0.3216239495
H       -1.8111284829    0.7713558065   -1.0153802119
H       -0.6129145387    1.0405061309   -2.2994686444
H       -0.4308507202   -2.7128725986   -0.4012012013
H       -1.5528137847   -1.5267646361    0.3197598910
H        4.4605574343    1.0038791571    2.7655534022
H        3.2224275115    2.1794987375    3.2777687218
H        4.4189463303    2.6439138148    2.0679361024
H        3.0759888891    2.3892027599   -0.4546018356
H        2.9909754402    0.6160027585   -0.6276113783
H        4.4767764164    1.3633130392   -0.0579508103
H        0.8302195962   -1.6689175123    1.4014293428
H       -1.2352189099   -1.3110826621   -2.1305654084
24   

C        0.2720961811    1.0026870199   -0.4147270536
C        0.7942941743    0.1715959400    0.5497278587
C        1.7845463329    0.5591953379    1.6139188715
C       -0.7394051530    0.5062055092   -1.4045737429
C       -0.7525068976   -1.6345663066   -0.1412003088
C        3.7720248809    1.7803094253    2.4345400931
C        3.3636547294    1.5665817216   -0.0274704039
N        0.3964612129   -1.1677687956    0.6274483651
N       -0.6987713292   -0.9636333362   -1.4405930877
N        2.9141320674    1.3380770562    1.3412120447
O        1.5726753823    0.1933326314    2.7781529287
H        0.5946283813    2.0339253151   -0.4706717319
H       -1.7359139026    0.8448233058   -1.1016120411
H       -0.5220440271    0.9145319872   -2.3967445519
H       -0.6954669462   -2.7187383868   -0.2796678707
H       -1.6833886314   -1.3864755595    0.3803052783
H        4.4641631748    0.9819885912    2.7196996655
H        3.1726414912    2.0617207829    3.3067608129
H        4.3470906422    2.6621379760    2.1350623719
H        2.9890093966    2.5253221742   -0.3985339491
H        3.0284909641    0.7648544243   -0.6937363301
H        4.4575875440    1.5754216217   -0.0684118982
H        0.6846318016   -1.6882115678    1.4537185999
H       -1.3825920447   -1.3484491104   -2.0833697957
24   

C        0.3791194161    0.9029119601   -0.4712701838
C        0.8691989193    0.0916738350    0.5288933241
C        1.8772197939    0.4674955574    1.5808858598
C       -0.6831488865    0.4231497034   -1.4160869791
C       -0.8406597386   -1.6197819752   -0.0106160476
C        3.7874519391    1.7632153876    2.4596529523
C        3.3736122648    1.6829043310   -0.0045055576
N        0.3620997606   -1.1978726697    0.6982819981
N       -0.7646049834   -1.0435438945   -1.3529300446
N        2.9386084017    1.3507107463    1.3472758223
O        1.7663912967   -0.0343766185    2.7085851454
H        0.7470274503    1.9129173663   -0.5864791527
H       -1.6443731387    0.8627060800   -1.1292581334
H       -0.4473262576    0.7437583833   -2.4358819971
H       -0.8746674306   -2.7118150641   -0.0751189095
H       -1.7344161667   -1.2610898900    0.5114544480
H        4.5073983381    0.9746667807    2.6999207929
H        3.1815646668    1.9761045475    3.3467247965
H        4.3313263982    2.6788129818    2.2068467547
H        2.9471931119    2.6396421578   -0.3208157165
H        3.0861097144    0.9016429315   -0.7156691473
H        4.4653162613    1.7563042171   -0.0415364192
H        0.6459252603   -1.6896085635    1.5447039822
H       -1.4912386589   -1.4131534707   -1.9563737052
24   

C        0.4532180059    0.8165096647   -0.5653865447
C        0.9112457098    0.0260376992    0.4688982998
C        1.9394109239    0.3808451097    1.5114207950
C       -0.6527034516    0.3597732607   -1.4719629423
C       -0.9458456425   -1.5710733793    0.0604661361
C        3.7736803844    1.7226952787    2.4734473487
C        3.3468054853    1.8109939761    0.0178509932
N        0.3015050358   -1.2019926460    0.7185738881
N       -0.8497269064   -1.0882845048   -1.3159394913
N        2.9311927921    1.3568702754    1.3392913244
O        1.9386489514   -0.2541581726    2.5762169747
H        0.8626100712    1.8000386617   -0.7405799650
H       -1.5737632997    0.8914267992   -1.2105327295
H       -0.4024204323    0.5945558561   -2.5115093336
H       -1.0672155896   -2.6587606951    0.0676318754
H       -1.7970115021   -1.1089419601    0.5722597387
H        4.5360069125    0.9557177975    2.6426887407
H        3.1692093798    1.8313972874    3.3801689993
H        4.2668307731    2.6826848134    2.2910547967
H        2.8495023485    2.7510189112   -0.2397924210
H        3.1293435671    1.0556664809   -0.7442904300
H        4.4293129691    1.9736800537   -0.0019746096
H        0.6013664235   -1.6923107939    1.5612627541
H       -1.6133550075   -1.4358989901   -1.8857656721
24   

C        0.5464222835    0.7128882369   -0.6609312698
C        0.9538934336   -0.0206939428    0.4376296436
C        2.0205366897    0.3049394845    1.4564972443
C       -0.6078164669    0.2737078803   -1.5156797914
C       -1.0449467980   -1.4822194279    0.1773860300
C        3.8088560905    1.6468099633    2.5005197016
C        3.2934403304    1.9810766978    0.0889478686
N        0.2337707767   -1.1556070116    0.7952473967
N       -0.9224394095   -1.1334426207   -1.2356408759
N        2.9487716016    1.3537988734    1.3570809292
O        2.1246653086   -0.4397804835    2.4431407386
H        1.0232368703    1.6352698377   -0.9480439004
H       -1.4777914252    0.9009716872   -1.2944101672
H       -0.3545077719    0.3971102484   -2.5735512646
H       -1.2518441501   -2.5517461431    0.2830241002
H       -1.8518416244   -0.9098852647    0.6478032003
H        4.6154354123    0.9097690627    2.5668320481
H        3.2302112378    1.6271469886    3.4301004701
H        4.2452557965    2.6463633866    2.4084791794
H        2.6558676269    2.8510642196   -0.0959085891
H        3.2069351091    1.2649556362   -0.7346333821
H        4.3356569754    2.3162310288    0.1016219032
H        0.5578979201   -1.6569459324    1.6229719376
H       -1.7180900608   -1.4641406411   -1.7706234691
24   

C        0.8334848029    0.5620132167   -0.6733173337
C        0.9097584525    0.2860574384    0.6754731253
C        2.1048905462    0.4530629003    1.5801136107
C       -0.3632029843    0.1558829779   -1.4783036270
C       -1.3284544074   -0.8132769534    0.5884063483
C        4.3254407726    1.3301246758    2.2064852611
C        2.9869283682    2.5088659278    0.4602529893
N       -0.1279671115   -0.3936210564    1.3070508014
N       -0.9752741084   -1.0044055530   -0.8180318718
N        3.1437011834    1.3659129359    1.3510142100
O        2.1582302384   -0.2372509251    2.6070543357
H        1.6854426026    0.9580951421   -1.2059301867
H       -1.0767553001    0.9843328629   -1.5322662169
H       -0.0528849585   -0.1095826124   -2.4943181300
H       -1.7005441408   -1.7547059224    1.0049782784
H       -2.1088172029   -0.0511794786    0.6845251945
H        5.1625433838    1.8462107270    1.7259108711
H        4.6377495559    0.2957505169    2.3853332187
H        4.1133462212    1.8099258161    3.1670597301
H        1.9342146355    2.7951203007    0.3695089852
H        3.3956566502    2.2838003377   -0.5295177151
H        3.5154646932    3.3778078378    0.8655840760
H        0.1235028912   -0.8489730472    2.1852825267
H       -1.7502536511   -1.3891921515   -1.3474260232
24   

C        0.8935941726    0.4489223539   -0.7228436797
C        0.9511232026    0.2225589343    0.6341303995
C        2.1611559364    0.3669378195    1.5172742123
C       -0.3310867144    0.0995246963   -1.5118654365
C       -1.3788165887   -0.6606571440    0.6061638018
C        4.3376968135    1.3459887998    2.1538838001
C        2.8691958771    2.5425453049    0.5200265634
N       -0.1422757083   -0.3260517206    1.3089877850
N       -1.0479761335   -0.9590239369   -0.7875633591
N        3.1267160130    1.3653765407    1.3407925933
O        2.3074322175   -0.4429251178    2.4420687848
H        1.7780775675    0.7673724199   -1.2572803101
H       -0.9679721293    0.9827315930   -1.6240910659
H       -0.0411279733   -0.2550267748   -2.5065139603
H       -1.8426155990   -1.5375927396    1.0688684194
H       -2.0799418393    0.1786948183    0.6599609080
H        5.1258565659    1.9399344918    1.6805451925
H        4.7155708346    0.3231920261    2.2563611374
H        4.1327842699    1.7521147986    3.1492920775
H        1.7961447356    2.7477300848    0.4498626477
H        3.2814645989    2.4075897730   -0.4845063574
H        3.3308076405    3.4257627966    0.9733102328
H        0.0849798273   -0.8132430384    2.1757268296
H       -1.8547588362   -1.3018667077   -1.2979777618
24   

C        0.9797508397    0.3174164024   -0.7805952056
C        1.0312674614    0.1366857259    0.5817427391
C        2.2574305897    0.2582687243    1.4441232181
C       -0.2747923256    0.0331956432   -1.5485838299
C       -1.3723110204   -0.5107316487    0.6139720511
C        4.3775261522    1.3338325715    2.1237054801
C        2.7952408192    2.5384553893    0.5995586260
N       -0.1018706154   -0.2755722777    1.2970648927
N       -1.0852863790   -0.9098371790   -0.7644686605
N        3.1454334105    1.3342141748    1.3433443727
O        2.4973590552   -0.6518936649    2.2471732873
H        1.8839910044    0.5607818068   -1.3229211470
H       -0.8283626097    0.9626990725   -1.7153199492
H       -0.0218581959   -0.4050771547   -2.5197069021
H       -1.9223974052   -1.3104779612    1.1199377716
H       -1.9810508165    0.3993275542    0.6288778288
H        5.1224317477    1.9885201408    1.6605833252
H        4.8083378220    0.3279167575    2.1662785403
H        4.1806187045    1.6808255837    3.1427686941
H        1.7097110420    2.6714060609    0.5497040810
H        3.2008324491    2.4925263964   -0.4156491013
H        3.2000068139    3.4226002074    1.1025135468
H        0.0876816730   -0.7793431727    2.1621958085
H       -1.9251029247   -1.2006814614   -1.2534785360
24   

C        1.0326979908    0.1739986621   -0.8623511947
C        1.0902957799    0.0597069192    0.5055315142
C        2.3387490393    0.1581812290    1.3406767982
C       -0.2528330881   -0.0441051673   -1.6001944165
C       -1.3641459551   -0.3375682658    0.6055268236
C        4.3864573833    1.3247525318    2.0963521702
C        2.6942006301    2.5325037850    0.6936661900
N       -0.0654517282   -0.2028933676    1.2626962066
N       -1.1415945128   -0.8479017639   -0.7478548096
N        3.1395249715    1.3037762774    1.3404768188
O        2.6758889284   -0.8240829976    2.0115199263
H        1.9465389350    0.3253890458   -1.4223881047
H       -0.7175701972    0.9200619335   -1.8296606712
H       -0.0544185108   -0.5709135486   -2.5394728511
H       -1.9903427795   -1.0408173868    1.1636408271
H       -1.8704034617    0.6327233573    0.5698910919
H        5.0809767544    2.0521603097    1.6645313032
H        4.8774948323    0.3464895040    2.0646330930
H        4.1918962550    1.5919730401    3.1396019110
H        1.6016117870    2.5868720558    0.6515944721
H        3.0961487443    2.5960309906   -0.3220495766
H        3.0331522236    3.4026402625    1.2649308582
H        0.0811677431   -0.6942487738    2.1419720910
H       -2.0135734628   -1.0835155755   -1.2095963997
24   

C        1.1136451002    0.0014404350   -0.9282065691
C        1.2061771978   -0.0042587318    0.4414424750
C        2.4897199671    0.0856591881    1.2286670509
C       -0.2072578625   -0.1758955514   -1.6125719978
C       -1.2684329802   -0.1804057631    0.6379345432
C        4.4378170720    1.3493109571    2.0934388102
C        2.6200310157    2.5371458826    0.8384355824
N        0.0569163519   -0.1177305528    1.2513642886
N       -1.1346532844   -0.8210354047   -0.6706708728
N        3.1788054991    1.2945581919    1.3593370402
O        2.9405758024   -0.9359865549    1.7568533046
H        2.0185199730    0.0445191072   -1.5208629522
H       -0.5982545453    0.7991540741   -1.9204554778
H       -0.0805768730   -0.7998706892   -2.5034738278
H       -1.9406194310   -0.7714174554    1.2680262019
H       -1.6822528289    0.8277361464    0.5306359320
H        5.0696223716    2.1535711710    1.7036864926
H        4.9971782831    0.4144107008    1.9839693572
H        4.2476543865    1.5273740435    3.1563138914
H        1.5274632387    2.4961258012    0.7865059791
H        3.0172318979    2.7435323496   -0.1600315942
H        2.8740369277    3.3702865497    1.5014101560
H        0.1820310450   -0.5584251582    2.1593072492
H       -2.0377882238   -1.0163263385   -1.0893934657
24   

C        1.1200977430   -0.1969916097   -1.0062756325
C        1.2612317145   -0.0472146695    0.3506390832
C        2.5810579282    0.0450680418    1.0808868911
C       -0.2320816836   -0.3628222848   -1.6296002860
C       -1.2123757748   -0.0390134198    0.6343244551
C        4.4337961213    1.3723164389    2.0675424066
C        2.4900141612    2.5251148189    0.9746055514
N        0.1335388426   -0.0175343011    1.2036228181
N       -1.1693961317   -0.8287600908   -0.5960480010
N        3.1519331930    1.2875419199    1.3745026134
O        3.1457933313   -0.9871518958    1.4546248944
H        2.0050897056   -0.2781211852   -1.6246307388
H       -0.5683091275    0.5948545743   -2.0400166376
H       -0.1762390013   -1.0919560547   -2.4446129169
H       -1.9073739491   -0.5009351591    1.3426226384
H       -1.5497842171    0.9814663880    0.4245087221
H        5.0183599352    2.2160884359    1.6881763795
H        5.0329142163    0.4695640593    1.9108951481
H        4.2713498048    1.5047005019    3.1416220796
H        1.9200820820    2.3959439212    0.0495939772
H        3.2277534689    3.3113917408    0.7873135873
H        1.8112530557    2.8599322127    1.7653261571
H        0.2549917345   -0.3707455685    2.1487032248
H       -2.0978411606   -1.0000812875   -0.9672545117
24   

C        1.1355444042   -0.3691458653   -1.0444360866
C        1.3283708612   -0.0800351267    0.2831999303
C        2.6825793926    0.0264942361    0.9474206146
C       -0.2403055337   -0.5430204146   -1.6107633815
C       -1.1359788982    0.0540861272    0.6307826922
C        4.4293027558    1.3674853443    2.1090117484
C        2.3915012329    2.4829536448    1.1720572559
N        0.2256671295    0.0643175537    1.1612096890
N       -1.1644502756   -0.8587305525   -0.5108150355
N        3.1519595578    1.2611124676    1.4104995287
O        3.3604047149   -0.9866916971    1.1418565748
H        1.9973431298   -0.5494484261   -1.6748097161
H       -0.5506892359    0.3803339812   -2.1106787833
H       -0.2374701612   -1.3539383802   -2.3465064027
H       -1.8314613059   -0.2972062611    1.3995039525
H       -1.4297464033    1.0636140156    0.3243382289
H        5.2006824216    1.7406443428    1.4284776258
H        4.7546483026    0.4021783814    2.5094818051
H        4.3364532650    2.0534553579    2.9567447556
H        1.8590375214    2.4392859243    0.2166356179
H        3.0633313151    3.3457922920    1.1255443181
H        1.6676109113    2.6416334060    1.9774288377
H        0.3583845397   -0.1945479961    2.1343156268
H       -2.1100565731   -1.0222308489   -0.8398610395
24   

C        1.3040200834   -0.4825894836   -1.0204415158
C        1.5110209859   -0.0723983829    0.2735759628
C        2.8831141389    0.1112131348    0.8796423121
C       -0.0723307113   -0.7423633304   -1.5508560758
C       -0.9562264193    0.0205813825    0.6404283155
C        4.5438941923    1.4398291392    2.1533256110
C        2.4012428005    2.4992724743    1.4039650808
N        0.4105884925    0.1039490798    1.1504319728
N       -0.9742413308   -0.9885788566   -0.4159059355
N        3.2452415131    1.3127753516    1.5010484195
O        3.6976910643   -0.8163375132    0.8703464555
H        2.1625818134   -0.6941684336   -1.6459835854
H       -0.4144698988    0.1263562128   -2.1228686308
H       -0.0543607817   -1.6122463166   -2.2155821219
H       -1.6359504081   -0.2770083578    1.4450566859
H       -1.2748123740    0.9931908006    0.2506236758
H        5.3105013243    1.7081103891    1.4198819713
H        4.8293720125    0.5020755577    2.6412408204
H        4.5060178412    2.2115234819    2.9285840957
H        1.7786505711    2.4743102147    0.5040017693
H        3.0210530973    3.3988471661    1.3355107616
H        1.7543044470    2.5792541196    2.2827803666
H        0.5588686331   -0.0575262123    2.1417200777
H       -1.9188614831   -1.2016135647   -0.7183432528
24   

C       -0.1382186716    0.5984085003    0.7060455161
C        1.2057588728    0.4101298231    0.4873261585
C        2.2644390786    1.1339570470    1.2817625756
C       -1.1796814322   -0.0537906919   -0.1498326099
C        0.6628397478   -1.2099735288   -1.3377065200
C        4.4728963851    1.2747247153    2.3846714794
C        3.5696082679   -0.9547159619    1.6978542347
N        1.6310827222   -0.4164764492   -0.5841634116
N       -0.5664903560   -0.4279859055   -1.4321502594
N        3.4385206574    0.4987374542    1.7092152693
O        2.1146075007    2.3249142941    1.5702844548
H       -0.4482941472    1.2969394735    1.4740250650
H       -1.5657809742   -0.9438045946    0.3578597205
H       -2.0099631708    0.6405356195   -0.3154418223
H        1.0484387173   -1.4125475429   -2.3418348459
H        0.4770956919   -2.1630379170   -0.8311280034
H        4.1751221090    1.4842464773    3.4168527690
H        4.6439602751    2.2219862007    1.8625228881
H        5.4204083005    0.7268615566    2.3920837722
H        4.0731652074   -1.2938599930    2.6086247925
H        4.1495363629   -1.2795998485    0.8290076074
H        2.5912270702   -1.4449164595    1.6801265109
H        2.5207868376   -0.2079460635   -1.0257867824
H       -1.2364416815   -0.8528147942   -2.0644719168
24   

C       -0.2053401096    0.6207353041    0.5678597340
C        1.1394761991    0.3586140981    0.4373379877
C        2.1743083608    1.0792362928    1.2626124855
C       -1.2345237688   -0.0312334489   -0.3027262432
C        0.5982900283   -1.3615618170   -1.2988906606
C        4.4187845003    1.3409713634    2.2606525885
C        3.6502727234   -0.9222987047    1.5394076976
N        1.5679688609   -0.5630823864   -0.5527018493
N       -0.5758970117   -0.5239752995   -1.5201663167
N        3.4184366924    0.5175258941    1.5889162714
O        1.9348004482    2.2105146512    1.6951487951
H       -0.5234836867    1.3748943535    1.2780515629
H       -1.6978810795   -0.8625265314    0.2387709440
H       -2.0135431209    0.6937507398   -0.5604307829
H        1.0242225142   -1.6608349852   -2.2617014532
H        0.3318399703   -2.2614189122   -0.7343092026
H        4.1471835792    1.4854715806    3.3111014402
H        4.4971389959    2.3190026854    1.7741806638
H        5.4042826683    0.8675248788    2.2094318228
H        4.2505208919   -1.2367748233    2.3990577994
H        4.1780765248   -1.1951084004    0.6209179981
H        2.7092174385   -1.4782145924    1.5973524082
H        2.4872434551   -0.4312315101   -0.9613763472
H       -1.2343721440   -0.9584192875   -2.1579923024
24   

C       -0.2087957791    0.7010932881    0.5528136697
C        1.1217869391    0.3453356131    0.5089160721
C        2.1446417033    1.0133686579    1.3920490474
C       -1.2333244480    0.0956849092   -0.3560485076
C        0.5418500460   -1.4087656874   -1.1845690086
C        4.4113164871    1.3430211130    2.3127807450
C        3.7584599900   -0.9056690439    1.4619615607
N        1.5279672549   -0.6479666741   -0.4211244648
N       -0.5465451560   -0.4949246418   -1.5122494277
N        3.4381018718    0.5096971971    1.6124577012
O        1.8489117084    2.0521185234    1.9901319308
H       -0.5180816268    1.4922472765    1.2258018551
H       -1.7919324439   -0.6748515154    0.1854548312
H       -1.9362747664    0.8673847714   -0.6865379491
H        0.9952394685   -1.7878245881   -2.1058352426
H        0.1744224309   -2.2558031432   -0.5954533739
H        4.1788028714    1.3810118155    3.3817371773
H        4.4014014580    2.3610580510    1.9090950502
H        5.4232297964    0.9470290857    2.1816127883
H        4.4506926327   -1.2213234063    2.2490205039
H        4.2228502592   -1.0946671331    0.4897607306
H        2.8638699044   -1.5266755686    1.5713877654
H        2.4700037909   -0.5931419280   -0.7927405628
H       -1.2000092207   -0.9076165733   -2.1694037227
24   

C       -0.1970211337    0.7507448798    0.4813341341
C        1.1042245176    0.2970928691    0.5409100342
C        2.1042574706    0.9249758844    1.4829106116
C       -1.2104756264    0.1805015641   -0.4623432054
C        0.4715609839   -1.5172900358   -1.0725700904
C        4.3610127569    1.3475591188    2.3893575822
C        3.8835273149   -0.8491309179    1.3236088757
N        1.4769265405   -0.7813416147   -0.3107451806
N       -0.5091222201   -0.5412805380   -1.5316783643
N        3.4395214620    0.5056948092    1.6300613446
O        1.7487609024    1.8587199194    2.2082778835
H       -0.4903723822    1.5898011337    1.1013614561
H       -1.8716841117   -0.5014947235    0.0823787715
H       -1.8169757275    0.9880414064   -0.8853166485
H        0.9388804290   -2.0051458748   -1.9337001963
H       -0.0010261598   -2.2805025190   -0.4450396039
H        4.1633298055    1.2551634238    3.4619889716
H        4.2492455717    2.3966011890    2.0951136754
H        5.3987137066    1.0611870402    2.1914842663
H        4.6862701201   -1.1470915453    2.0056437545
H        4.2587459459   -0.9103470960    0.2979365812
H        3.0742460666   -1.5705152066    1.4728284035
H        2.4314867606   -0.8105838706   -0.6494969630
H       -1.1566292572   -0.9448635569   -2.2003217815
