49

C     -1.60768    2.42457    1.88457
C      4.02859   -0.75684   -0.54108
C     -0.67380    1.38898    1.89250
C      2.97617   -0.89407    0.36325
C     -2.82216    1.30657    0.13639
C      1.39409   -0.57404   -1.45660
C     -1.90817    0.25220    0.12694
C     -2.69903    2.39784    1.00773
C      3.79808   -0.52793   -1.90074
C      2.47146   -0.42764   -2.35011
C      1.66151   -0.82066   -0.09563
C     -0.82103    0.30622    1.02158
C     -0.01477   -0.34976   -1.89433
C     -2.09132   -0.87392   -0.86571
C     -3.69194    3.53360    0.96245
C      4.54192    2.14486   -3.01689
C      6.74707    1.16905   -3.78133
C      1.66027   -1.19255   -4.45731
C      4.96950   -0.36271   -2.85208
C      5.58860    1.04747   -2.78213
O     -0.42266    0.57034   -2.56847
O      1.12903   -0.70866    2.47080
O     -0.27588   -2.32857    1.13137
O     -0.80190   -1.30734   -1.33785
O      6.01726   -1.29103   -2.52572
O      2.25801   -0.14707   -3.67762
S      0.39581   -1.02789    1.23309
H     -1.48422    3.25890    2.57064
H      5.05486   -0.83365   -0.19415
H      0.16032    1.39807    2.58560
H      3.16534   -1.04323    1.42024
H     -3.64655    1.28539   -0.57361
H     -2.51155   -1.76334   -0.39363
H     -2.72174   -0.55549   -1.69873
H     -3.41679    4.25285    0.18194
H     -4.70039    3.17483    0.73708
H     -3.72429    4.07325    1.91276
H      4.05891    2.02953   -3.99276
H      3.75664    2.13744   -2.25565
H      5.02132    3.12881   -2.99181
H      6.37966    1.07810   -4.81115
H      7.23080    2.14725   -3.68741
H      7.49827    0.39367   -3.61643
H      1.57718   -0.80072   -5.47186
H      0.66281   -1.45571   -4.09348
H      2.29780   -2.08539   -4.45354
H      4.62044   -0.53372   -3.87783
H      5.99124    1.15823   -1.76610
H      5.65737   -2.18882   -2.60205
