50

C     -5.92295   -2.48962    5.85025
C     -6.32719   -3.09295    7.03659
C     -4.17719   -2.78984    3.89485
C     -4.67821   -4.87164    6.81085
C     -4.87573   -3.08145    5.12183
C     -5.71862   -4.27184    7.52662
C     -4.28699   -4.25810    5.62689
C     -3.24610   -3.77178    3.73756
C     -2.24788   -3.97909    2.66353
C     -7.43609   -5.81990    8.61026
C     -8.56594   -7.84059    9.74975
C     -9.47385   -6.67049    9.94454
C      1.87778   -5.01575    0.98453
C      1.47567   -4.99673    3.45747
C      2.15508   -6.54705    1.09879
C      1.74207   -6.53341    3.46686
C     -0.05657   -6.94319    1.93384
C     -7.96527   -6.44010    9.85961
C      0.88110   -4.62276    2.08934
C     -0.41647   -5.42743    1.85280
C     -6.22409   -4.90067    8.79811
N      1.37189   -7.16117    2.18595
N     -1.47143   -5.09094    2.80303
O     -2.15629   -3.18705    1.72136
O     -7.93730   -6.03463    7.51663
O     -3.28811   -4.68652    4.78540
H     -6.40662   -1.58367    5.49578
H     -7.14128   -2.65219    7.60694
H     -4.33006   -1.96979    3.20669
H     -4.19888   -5.78267    7.15827
H     -8.39088   -8.51378   10.58323
H     -8.53103   -8.28710    8.76124
H    -10.04674   -6.33361    9.08661
H     -9.93657   -6.52054   10.91508
H      2.80170   -4.43884    1.10068
H      1.46494   -4.76179    0.00175
H      0.78921   -4.70627    4.25965
H      2.40267   -4.43589    3.61855
H      1.90158   -7.06538    0.16832
H      3.21312   -6.74435    1.29805
H      2.79847   -6.75162    3.65271
H      1.17057   -7.03008    4.25887
H     -0.62214   -7.43197    2.73625
H     -0.32518   -7.45154    1.00303
H     -7.44896   -6.19189   10.78254
H      0.65089   -3.55578    2.04052
H     -0.80046   -5.17201    0.86165
H     -5.44082   -5.49539    9.28530
H     -6.50912   -4.13447    9.53088
H     -1.60667   -5.66581    3.62522
