49

C      2.79159   -5.41410    1.46490
C      3.06581   -5.52256    2.83029
C      3.47942   -4.48961    0.67599
C      7.17362    0.01581    3.20562
C      4.74110   -3.79885    2.60568
C      5.45951    1.75885    4.60913
C      4.15131   -5.87810    5.74816
C      4.81937   -3.76557    5.67999
C      5.79801    0.07500    2.86227
C      4.04380   -4.70631    3.42149
C      4.32342   -4.77685    4.86180
C      4.46599   -3.67285    1.24442
C      4.93157    0.95419    3.56364
C      7.66973    0.80128    4.22163
C      6.79745    1.68263    4.93130
C      5.16808   -0.71933    1.84005
C      3.14789    0.28885    2.29674
C      1.68843    0.37108    1.93769
C      6.29613   -3.41823   -0.48183
C      6.65660    3.33796    6.65963
C      5.23481   -2.69598    0.35799
N      4.50983   -5.58214    6.99892
N      3.59673    1.05700    3.27404
N      3.87524   -0.60211    1.57013
N      4.91020   -4.29087    6.93170
N      5.89275   -1.62804    1.11120
O      8.99484    0.74860    4.55608
O      7.43416    2.40054    5.91142
H      2.02248   -6.03965    1.01863
H      2.49812   -6.21741    3.44331
H      3.24030   -4.39422   -0.38137
H      7.87827   -0.62291    2.68106
H      5.50883   -3.17766    3.05745
H      4.77254    2.41997    5.12435
H      3.80105   -6.87665    5.51732
H      5.07593   -2.73559    5.47019
H      1.57537    0.65525    0.88604
H      1.21956   -0.61145    2.05548
H      1.17939    1.09947    2.57016
H      7.04502   -3.89354    0.16314
H      5.83476   -4.20666   -1.08113
H      6.80080   -2.71557   -1.15248
H      7.34476    3.80267    7.36606
H      5.85373    2.82976    7.20500
H      6.22975    4.10190    6.00071
H      4.51470   -2.21601   -0.30919
H      5.21926   -3.82895    7.77599
H      6.81206   -1.85383    1.46524
H      9.13958    1.38820    5.27612
