29   

C        1.8222471153   -3.6715625114   -0.9459719377
C        0.8692089664   -3.5439606583    0.0507280272
C        5.2784208488    1.3681512724   -0.0016785545
C        5.9305652994    1.2172717354   -1.2154441851
C        2.7050289867   -2.6235874686   -1.1969675706
C        0.7838890280   -2.3521836106    0.7644531598
C        4.2039326533    0.5249103481    0.2580555402
C        5.4999402965    0.2347446350   -2.1072692894
C        2.6735102619   -1.4065386280   -0.4628430914
C        1.6469081890   -1.2660116751    0.5149330792
C        3.7831421112   -0.4293819808   -0.6924102924
C        1.1275753332    1.1580189671    0.3445901873
C        0.8216415783   -0.0334501617    2.5365179370
N        4.4623654186   -0.5743732244   -1.8512594762
N        1.3611684324   -0.0450252017    1.1660403434
H        1.8925959290   -4.5881701095   -1.5205427139
H        0.1827164970   -4.3569844178    0.2576666228
H        5.6024063540    2.1048127943    0.7261345325
H        6.7764898504    1.8417923882   -1.4730676776
H        3.4551701406   -2.7934882461   -1.9611795572
H       -0.0068711232   -2.2631458377    1.4963204124
H        3.7200659619    0.5903229746    1.2211777435
H        6.0271542477    0.1174232275   -3.0467795319
H        1.3948902767    0.9814448536   -0.7017511940
H        1.7243153506    1.9954703566    0.7182572944
H        0.0682569645    1.4312903335    0.3752323242
H        1.1010045669    0.8955912843    3.0428864722
H        1.2321670592   -0.8663822390    3.1161947716
H       -0.2699243141   -0.1137450426    2.5164290390
29   

C        1.8681962264   -3.7243449939   -0.8787871712
C        0.8764267121   -3.5685053426    0.0787256152
C        5.3121653871    1.2748981343    0.0860554441
C        5.8225902085    1.2917640235   -1.2040944170
C        2.7598267491   -2.6822122103   -1.1243953751
C        0.7634834478   -2.3575780850    0.7599848617
C        4.2804626332    0.3823134635    0.3526966826
C        5.2950175035    0.4259346407   -2.1648360412
C        2.6941234735   -1.4565919458   -0.4191014052
C        1.6369080243   -1.2790541895    0.5145080442
C        3.7783665851   -0.4592762850   -0.6577745888
C        1.2359569438    1.1702345160    0.3057262491
C        0.7465403849    0.0041697177    2.4764477956
N        4.3001609627   -0.4334765302   -1.9010752518
N        1.3622624878   -0.0406164831    1.1394441492
H        1.9578365645   -4.6552533676   -1.4270390179
H        0.1818162508   -4.3758926838    0.2805794483
H        5.7069810107    1.9248157956    0.8600584780
H        6.6288863778    1.9623423809   -1.4728459746
H        3.5425248001   -2.8454291808   -1.8573770509
H       -0.0516907994   -2.2504565180    1.4619948506
H        3.8721522968    0.3164301833    1.3523713102
H        5.7079153091    0.4464694421   -3.1665833788
H        1.4641388653    0.9558174594   -0.7427928629
H        1.9164760014    1.9499546086    0.6602667550
H        0.2089108204    1.5460739678    0.3467726683
H        1.0013649846    0.9436030861    2.9766699348
H        1.1207495852   -0.8162984251    3.0969892535
H       -0.3425684485   -0.0719877367    2.3968279158
29   

C        1.8993996150   -3.7856448289   -0.8117854303
C        0.8742646539   -3.5951956364    0.1067704045
C        5.3612470098    1.1634421228    0.1487147994
C        5.7209051128    1.3508401600   -1.1791176226
C        2.8056198011   -2.7552829444   -1.0558626469
C        0.7436959141   -2.3637490118    0.7511044915
C        4.3739558903    0.2217269994    0.4136882093
C        5.0888758876    0.6040982293   -2.1775326212
C        2.7177184600   -1.5199625320   -0.3814660989
C        1.6331032205   -1.2986721885    0.5061115081
C        3.7813441371   -0.5063832564   -0.6318730151
C        1.3271178600    1.1628694617    0.2516972041
C        0.7065978787    0.0410550041    2.4116535207
N        4.1380335550   -0.3043151350   -1.9143957323
N        1.3735989890   -0.0424385914    1.1017145730
H        1.9993731923   -4.7313935285   -1.3321144611
H        0.1673814730   -4.3924205237    0.3064040172
H        5.8313066599    1.7258231840    0.9487996039
H        6.4852530036    2.0679682835   -1.4502810939
H        3.6117464095   -2.9202464817   -1.7628373252
H       -0.0927961233   -2.2317330896    1.4231959295
H        4.0527974543    0.0315853233    1.4300049089
H        5.3795424997    0.7636083578   -3.2092635221
H        1.5162046245    0.9157784579   -0.7974300404
H        2.0713666329    1.8929322935    0.5827530606
H        0.3328639009    1.6173736223    0.3026045750
H        0.9540673732    0.9887314746    2.8999721063
H        1.0459460100   -0.7690193150    3.0649829384
H       -0.3794582649   -0.0231815715    2.2909188519
29   

C        1.9199080866   -3.8171493913   -0.7296119014
C        0.8610521555   -3.5853962325    0.1421242600
C        5.4612158242    1.0370717004    0.2018682329
C        5.6633506691    1.4006694667   -1.1232054990
C        2.8444697686   -2.8029483023   -0.9745040270
C        0.7174391816   -2.3312654594    0.7408602805
C        4.5030317383    0.0623661813    0.4542391284
C        4.9071374960    0.7921715170   -2.1297715065
C        2.7372984111   -1.5498919047   -0.3437834735
C        1.6264035381   -1.2835485427    0.4945676865
C        3.7936252875   -0.5290809385   -0.6023128492
C        1.4030860459    1.1829674584    0.1906405305
C        0.6772541737    0.1141074479    2.3451918582
N        3.9851715762   -0.1488208023   -1.8783368177
N        1.3808184392   -0.0101880632    1.0580703335
H        2.0287180876   -4.7806734281   -1.2143347491
H        0.1390568990   -4.3691355486    0.3410790217
H        6.0243405824    1.4948665355    1.0085309741
H        6.3967324321    2.1525641991   -1.3855911999
H        3.6732951506   -2.9870144625   -1.6495936480
H       -0.1400711909   -2.1690397935    1.3790539496
H        4.2859305990   -0.2554269736    1.4661995493
H        5.0719251739    1.0923431337   -3.1579416138
H        1.5352292982    0.9049043605   -0.8593832146
H        2.2126939700    1.8563249456    0.4862498129
H        0.4497964989    1.7155267286    0.2630369516
H        0.9260212468    1.0687392064    2.8191503712
H        0.9845279181   -0.6857625092    3.0263730286
H       -0.4057017132    0.0642767187    2.1940149881
29   

C        1.9780752400   -3.8437419114   -0.6509685605
C        0.8830028427   -3.5902257858    0.1694495173
C        5.6332126782    0.8486209213    0.2127267063
C        5.6678485381    1.4216095806   -1.0521320988
C        2.9001947281   -2.8283257646   -0.9014838171
C        0.7052220920   -2.3164024907    0.7162000458
C        4.6747541803   -0.1321811427    0.4399682658
C        4.7527927961    1.0057468120   -2.0244057605
C        2.7479762081   -1.5525159347   -0.3314225761
C        1.6123390347   -1.2690391655    0.4639839547
C        3.8007642451   -0.5217667704   -0.5846063487
C        1.3766821879    1.1862783426    0.1038389566
C        0.6432498790    0.1599062814    2.2775943506
N        3.8312553497    0.0582504442   -1.7972424269
N        1.3540351842    0.0135431131    0.9970324201
H        2.1157483800   -4.8246945863   -1.0913912251
H        0.1620833337   -4.3740815864    0.3718422976
H        6.3221578447    1.1542811980    0.9933362190
H        6.3920506129    2.1895305830   -1.2926764225
H        3.7568901179   -3.0267926866   -1.5361830747
H       -0.1730074242   -2.1393785134    1.3215655762
H        4.5837598835   -0.6079837584    1.4079560596
H        4.7882455108    1.4677812321   -3.0040210830
H        1.4224450545    0.8773952888   -0.9447482356
H        2.2354202084    1.8246041379    0.3301480186
H        0.4566898621    1.7665840731    0.2237760598
H        0.8834926482    1.1258690501    2.7326496308
H        0.9529389592   -0.6234866628    2.9766016209
H       -0.4385765008    0.0993170893    2.1226238416
29   

C        2.0329473978   -3.8424742431   -0.5175026674
C        0.8976100165   -3.5653718934    0.2378091596
C        5.8783276789    0.5650510796    0.1148980411
C        5.7588393267    1.3638209681   -1.0149654577
C        2.9469273525   -2.8239728196   -0.7853546371
C        0.6787680959   -2.2687971359    0.7107143983
C        4.8779278508   -0.3741299408    0.3379497374
C        4.6614587860    1.1973999918   -1.8653652566
C        2.7384016235   -1.5168157545   -0.3114322746
C        1.5784643829   -1.2201666268    0.4409067150
C        3.8010539589   -0.4901630182   -0.5520688742
C        1.2001512598    1.1915527105   -0.0230924628
C        0.6246509206    0.2404458285    2.2302475513
N        3.7004877330    0.2889410562   -1.6428202385
N        1.2913240596    0.0714893857    0.9292574367
H        2.2082615216   -4.8442828830   -0.8928478147
H        0.1815518102   -4.3504154649    0.4525159589
H        6.7159179195    0.6690193821    0.7968634001
H        6.5049426217    2.1138505951   -1.2447065674
H        3.8371186712   -3.0435192406   -1.3644221697
H       -0.2213383742   -2.0739691993    1.2775732107
H        4.9098736871   -1.0239015759    1.2029308890
H        4.5827945333    1.8281687169   -2.7430339983
H        1.2095378885    0.8264926270   -1.0544909377
H        2.0307688325    1.8877412304    0.1230367798
H        0.2555073268    1.7261834668    0.1156411953
H        0.8755473773    1.2167955023    2.6563962348
H        0.9621561622   -0.5273611993    2.9336677032
H       -0.4614930368    0.1702123544    2.1145811469
29   

C        2.0863051272   -3.8392032553   -0.3847670576
C        0.9060478027   -3.5395978735    0.2874609955
C        6.0616240123    0.3347964534   -0.0540093891
C        5.8315973924    1.3163985999   -1.0084973134
C        3.0018962720   -2.8226266650   -0.6545990344
C        0.6504770800   -2.2247553192    0.6833436145
C        5.0358750248   -0.5728185967    0.1843508179
C        4.6072886500    1.3495320338   -1.6822653551
C        2.7485589061   -1.4906342462   -0.2763564969
C        1.5531230807   -1.1799265895    0.4123991245
C        3.8190005471   -0.4725845785   -0.5076524980
C        0.9751307080    1.1605068589   -0.1542535868
C        0.6299719861    0.3092774025    2.1827714351
N        3.6235733801    0.4697050989   -1.4463316166
N        1.2303541233    0.1177410201    0.8533592656
H        2.2947604290   -4.8569315003   -0.6947027851
H        0.1869619850   -4.3219171489    0.5020091395
H        7.0017932631    0.2776751504    0.4847468297
H        6.5895238418    2.0541810288   -1.2390772781
H        3.9256362218   -3.0635583408   -1.1689778820
H       -0.2768437658   -2.0094290563    1.1968778432
H        5.1561926141   -1.3607236317    0.9165087109
H        4.4450468037    2.1175203852   -2.4293987776
H        1.0351950423    0.7475114481   -1.1658976076
H        1.7002491442    1.9731801353   -0.0543450432
H       -0.0345866590    1.5637547051   -0.0304411156
H        0.9036864214    1.2918603160    2.5793286544
H        0.9993565868   -0.4487968047    2.8807537358
H       -0.4606321410    0.2380269687    2.1230314597
29   

C        0.8471023470   -2.6014037304   -2.1566324139
C       -0.0816185626   -2.6373556643   -1.1235892569
C        5.8751821064    0.0151733510   -1.0780358391
C        5.6833817425    1.3756308184   -0.8736152476
C        2.0060057568   -1.8412551255   -2.0129901427
C        0.1670755757   -1.9336452999    0.0565921444
C        4.7474776124   -0.7978148055   -1.0525390100
C        4.3915369031    1.8683341754   -0.6635092500
C        2.2570034697   -1.0996067603   -0.8417958165
C        1.3395936364   -1.1733106599    0.2405221439
C        3.4803988700   -0.2467082653   -0.8034165243
C        0.4357277476   -0.1159844279    2.3287301611
C        2.8960278664   -0.6006043278    2.1367720899
N        3.3098066464    1.0782095624   -0.6385770791
N        1.5643685325   -0.5834522886    1.5079358116
H        0.6651011629   -3.1510062072   -3.0731877302
H       -0.9898906108   -3.2198748544   -1.2275722816
H        6.8639073606   -0.3964620512   -1.2531117563
H        6.5212754517    2.0611779664   -0.8817391524
H        2.7085549435   -1.7955719838   -2.8375912389
H       -0.5567734355   -2.0154758021    0.8554245778
H        4.8350283431   -1.8648832229   -1.2108339668
H        4.2573111501    2.9334718037   -0.5158037921
H       -0.3490479660    0.3059749123    1.6928570752
H        0.7664452583    0.6714229778    3.0131600467
H        0.0231102413   -0.9437454161    2.9139519980
H        3.3286657004    0.4039252627    2.1456292013
H        3.5715900542   -1.2810477511    1.6107290991
H        2.8153243353   -0.9652002205    3.1653496505
29   

C        0.9853484992   -2.6585354178   -2.0922300809
C        0.0074983886   -2.6440937583   -1.1071166514
C        5.9331398093    0.0840708155   -1.1909073089
C        5.7553616781    1.3986989163   -0.7818266361
C        2.1476340901   -1.9103724973   -1.9194613823
C        0.2110569825   -1.9041444984    0.0579756211
C        4.8186739556   -0.7472738284   -1.1695874800
C        4.4896324563    1.8302170677   -0.3759466519
C        2.3613215605   -1.1280225333   -0.7636400196
C        1.3849277220   -1.1540145169    0.2749929348
C        3.5733740465   -0.2628370353   -0.7303870079
C        0.3980534010   -0.0513147756    2.3062543626
C        2.8588065657   -0.5608646564    2.2312396664
N        3.4211507261    1.0226625513   -0.3550344380
N        1.5554474625   -0.5461891289    1.5439834202
H        0.8373541139   -3.2353435257   -2.9981586276
H       -0.9045788949   -3.2156834447   -1.2356204879
H        6.9024952355   -0.2802427569   -1.5154023734
H        6.5841252647    2.0952756610   -0.7771429345
H        2.8754842374   -1.9027327412   -2.7226200781
H       -0.5516733987   -1.9512843116    0.8226214989
H        4.9089501976   -1.7808565831   -1.4766363673
H        4.3647922870    2.8608675320   -0.0652867694
H       -0.3602954235    0.3544255671    1.6292530879
H        0.7061724905    0.7546799814    2.9795091609
H       -0.0396670006   -0.8604370698    2.8993267273
H        3.2997451814    0.4403459145    2.2403032023
H        3.5503847080   -1.2560245260    1.7460411350
H        2.7316359409   -0.8990238579    3.2641919036
29   

C        1.0444784542   -2.7536265597   -2.0265659812
C        0.0331279042   -2.6773466941   -1.0814804758
C        5.9179434372    0.1484604340   -1.3473537069
C        5.7678749678    1.4051696215   -0.7800435111
C        2.2133667533   -2.0176799471   -1.8472645837
C        0.2106683030   -1.8892441171    0.0538370257
C        4.8192523387   -0.7035690333   -1.3153693761
C        4.5450981138    1.7590339012   -0.2067588231
C        2.4117910602   -1.1865116099   -0.7181655487
C        1.3902951325   -1.1512207640    0.2807733150
C        3.6066856804   -0.2966030312   -0.7211571715
C        0.3584746679    0.0429603802    2.2384003017
C        2.7855438396   -0.6122952151    2.3011140077
N        3.4927001344    0.9315758963   -0.1771672848
N        1.5253290489   -0.5214862344    1.5425274091
H        0.9158160999   -3.3657321783   -2.9120868704
H       -0.8849176439   -3.2376376835   -1.2171183156
H        6.8567771956   -0.1590055152   -1.7964788774
H        6.5860586273    2.1141113127   -0.7755096953
H        2.9477666847   -2.0584004682   -2.6421400258
H       -0.5781645077   -1.8908626373    0.7930450119
H        4.9124980239   -1.6963468190   -1.7332738548
H        4.4408217878    2.7438470906    0.2332235138
H       -0.3579343190    0.4482058518    1.5169842312
H        0.6704393491    0.8624278173    2.8932851575
H       -0.1313871445   -0.7271451848    2.8426272931
H        3.2453877818    0.3756413492    2.3997156613
H        3.4925367937   -1.2872748789    1.8095087187
H        2.5912609083   -1.0125525530    3.3008043197
29   

C        1.0922540333   -2.8332224818   -1.9325671803
C        0.0556942328   -2.6988547567   -1.0253076678
C        5.8814540003    0.2462738746   -1.4892664543
C        5.7854194874    1.4255459026   -0.7688245987
C        2.2655595161   -2.1039185222   -1.7561576335
C        0.2134026151   -1.8603078208    0.0735795639
C        4.7960377678   -0.6227190197   -1.4474321529
C        4.6289332540    1.6855375979   -0.0349859755
C        2.4550287211   -1.2195321700   -0.6608442599
C        1.3962359170   -1.1277420378    0.3014249714
C        3.6355797977   -0.3075149943   -0.7014551603
C        0.3218612369    0.1738567352    2.1663423633
C        2.6916732887   -0.6389704166    2.3904083124
N        3.5903264434    0.8419674762    0.0017265140
N        1.4933591203   -0.4672674072    1.5498153053
H        0.9794839780   -3.4845502790   -2.7919353033
H       -0.8661665234   -3.2528693499   -1.1609188132
H        6.7725959492    0.0069476249   -2.0604376469
H        6.5962156693    2.1428874352   -0.7641164926
H        2.9990866432   -2.2025123559   -2.5441887101
H       -0.5953615824   -1.8184733439    0.7897770970
H        4.8818571029   -1.5567461102   -1.9817227495
H        4.5659976940    2.6078580446    0.5304026901
H       -0.3481004281    0.5684251717    1.3961093352
H        0.6389734834    1.0120221616    2.7944381471
H       -0.2225825748   -0.5471641979    2.7843520525
H        3.1719491552    0.3273663482    2.5721332363
H        3.4144223451   -1.3066884741    1.9116094697
H        2.4144952085   -1.0834081895    3.3510389274
29   

C        1.1339017121   -2.9129534071   -1.8469783797
C        0.0890960919   -2.7500589882   -0.9571821517
C        5.7932989077    0.4007693710   -1.6685973244
C        5.8253696888    1.4214516545   -0.7353095663
C        2.3018225418   -2.1707148733   -1.6898592917
C        0.2357820371   -1.8708065496    0.1083293912
C        4.7097952378   -0.4716595298   -1.6348332199
C        4.7910600675    1.5271956147    0.1902247280
C        2.4829041409   -1.2337196012   -0.6328496113
C        1.4110289171   -1.1211462592    0.3171637431
C        3.6679133062   -0.3207191881   -0.6821049408
C        0.2977330856    0.3215233765    2.0449861214
C        2.5540912218   -0.6982327358    2.4920555628
N        3.7549422636    0.6810903444    0.2162149382
N        1.4659610629   -0.4152744528    1.5398976599
H        1.0355810096   -3.6045668337   -2.6761570487
H       -0.8278082384   -3.3158016879   -1.0772000674
H        6.5858513505    0.2848309116   -2.4007608064
H        6.6407731759    2.1332060867   -0.7142042762
H        3.0391682865   -2.3359886950   -2.4596985152
H       -0.5767454274   -1.8057083744    0.8189010334
H        4.7181523844   -1.2628455269   -2.3655057312
H        4.8243478486    2.3264441401    0.9212370701
H       -0.3303690242    0.6598373881    1.2150179177
H        0.6237743179    1.2054168624    2.6015918652
H       -0.2958844633   -0.3182301298    2.7057656644
H        3.0579235223    0.2297749695    2.7795566252
H        3.2938767546   -1.3724179989    2.0491144768
H        2.1532463008   -1.1802115801    3.3887575743
29   

C        1.2013487320   -2.9694005297   -1.8036728735
C        0.1937116049   -2.8521521112   -0.8637533080
C        5.6375718926    0.6120742260   -1.9072937850
C        5.9462723552    1.3188431140   -0.7585101739
C        2.3378255984   -2.1700498511   -1.7038329972
C        0.3448280378   -1.9507622792    0.1834741552
C        4.5211445268   -0.2172268355   -1.8726547783
C        5.1361425190    1.1757006732    0.3650556808
C        2.5151548490   -1.2122444079   -0.6666934756
C        1.4848189032   -1.1357076651    0.3225339213
C        3.7300446921   -0.3439813381   -0.7017562832
C        0.3400887320    0.5061473450    1.8108857953
C        2.4156562866   -0.6925300834    2.5714746753
N        4.0663923503    0.3719312448    0.3884766887
N        1.5039516629   -0.3272909424    1.4747380071
H        1.1070251373   -3.6839163645   -2.6136603293
H       -0.6959646530   -3.4677722843   -0.9320880734
H        6.2373941566    0.7108169214   -2.8062029408
H        6.7997553325    1.9838969771   -0.7249272616
H        3.0871263987   -2.3408394397   -2.4631023281
H       -0.4369939319   -1.8991312917    0.9295279529
H        4.2705514984   -0.7276182630   -2.7887921982
H        5.3803233223    1.7372101872    1.2591182617
H       -0.2561499647    0.7115322585    0.9162003161
H        0.6718530930    1.4635434784    2.2237754512
H       -0.2915577910   -0.0035697867    2.5453990811
H        2.9440600776    0.1943735127    2.9343569705
H        3.1581052428   -1.4212264774    2.2307665124
H        1.8538196198   -1.1406215245    3.3965254869
29   

C        1.2420014116   -3.0152490516   -1.7615207176
C        0.2518705551   -2.9325414354   -0.7951234829
C        5.4604046434    0.8048942503   -1.9305559001
C        5.9544238390    1.2627915404   -0.7197537212
C        2.3545905122   -2.1795124602   -1.6836127754
C        0.3891553464   -2.0181039409    0.2459749118
C        4.3355276979   -0.0120614967   -1.8951119009
C        5.3146040408    0.8932644850    0.4633354847
C        2.5180303704   -1.2332908567   -0.6401466605
C        1.5030560572   -1.1656709845    0.3552134321
C        3.7231937656   -0.3583729363   -0.6691720454
C        0.3369941534    0.5763572307    1.6864318678
C        2.3195787278   -0.6496791631    2.6245278399
N        4.2338275198    0.1031775503    0.4870872721
N        1.5018593469   -0.2902369961    1.4546646319
H        1.1534366602   -3.7312382846   -2.5708018199
H       -0.6175421345   -3.5782154369   -0.8440123775
H        5.9266071688    1.0814354510   -2.8705989427
H        6.8244805462    1.9057096402   -0.6809018764
H        3.1118230983   -2.3009351183   -2.4479085721
H       -0.3833728339   -1.9734770092    1.0023412781
H        3.9164762830   -0.3492405155   -2.8322914262
H        5.7079845135    1.2587391445    1.4045846278
H       -0.2173114932    0.7302966185    0.7551204385
H        0.6646289772    1.5542982146    2.0517557043
H       -0.3340349467    0.1224245234    2.4225678895
H        2.8762932504    0.2233402174    2.9782118023
H        3.0366357147   -1.4361033318    2.3682491307
H        1.6819567873   -1.0231416068    3.4315407285
29   

C        1.2979406196   -3.0920451365   -1.6965819309
C        0.2991711179   -3.0019406930   -0.7360864736
C        5.3081673105    0.9527702463   -1.9059703969
C        5.9473290192    1.2300085990   -0.7066549332
C        2.3998520980   -2.2405679434   -1.6276288089
C        0.4123790766   -2.0593713178    0.2853797282
C        4.1875297983    0.1311862262   -1.8562513699
C        5.4531074294    0.6803995047    0.4782006153
C        2.5402204025   -1.2863573189   -0.5942492660
C        1.5156377166   -1.1928646973    0.3818408038
C        3.7219663395   -0.3814695332   -0.6292212033
C        0.3279174783    0.5943549724    1.6250219071
C        2.3138148775   -0.5702847945    2.6289611251
N        4.3741048070   -0.1126235608    0.5161220552
N        1.5056686934   -0.2654932786    1.4371028571
H        1.2223483476   -3.8226066568   -2.4940274887
H       -0.5614540462   -3.6597486341   -0.7780830403
H        5.6642931773    1.3647713677   -2.8445266979
H        6.8227185632    1.8661821749   -0.6776516298
H        3.1696303607   -2.3391710291   -2.3842716429
H       -0.3694281548   -2.0009548716    1.0311589130
H        3.6510562420   -0.0953651266   -2.7677990969
H        5.9642461467    0.9016023900    1.4077656927
H       -0.2044496277    0.7258184507    0.6775845178
H        0.6382513750    1.5821937503    1.9788212008
H       -0.3566967167    0.1489496850    2.3537656790
H        2.9067377254    0.3028765719    2.9169336931
H        2.9953401060   -1.4040627566    2.4324805764
H        1.6651357951   -0.8571363592    3.4622452529
29   

C        1.3345600191   -3.1583491619   -1.6487742950
C        0.3041755332   -3.0318059073   -0.7241640433
C        5.1711119811    1.0820286662   -1.8352159362
C        5.9453731265    1.1866397026   -0.6881881692
C        2.4399787125   -2.3119669062   -1.5685755747
C        0.3878363972   -2.0573749682    0.2718137268
C        4.0523182677    0.2588655967   -1.7747575899
C        5.5825468637    0.4699508188    0.4552475532
C        2.5493869017   -1.3370278212   -0.5557260853
C        1.4956787001   -1.1978159683    0.3785327543
C        3.7216987453   -0.4154451732   -0.5864324380
C        0.2760985146    0.5949067643    1.5880511774
C        2.3350698430   -0.4495117033    2.5750804942
N        4.5030828741   -0.3228282442    0.5039589801
N        1.4786431682   -0.2301165787    1.3980217428
H        1.2788672864   -3.9101838655   -2.4278485544
H       -0.5593515066   -3.6851127317   -0.7756871525
H        5.4261271600    1.6218215347   -2.7413226666
H        6.8275061254    1.8138382619   -0.6692601589
H        3.2351357431   -2.4185078015   -2.2980065520
H       -0.4191495007   -1.9716600881    0.9873253044
H        3.4119861304    0.1449003140   -2.6396186096
H        6.2008256933    0.5553670656    1.3411055037
H       -0.2603659207    0.7115123368    0.6409751029
H        0.5579723893    1.5917045282    1.9407635204
H       -0.3937369261    0.1306390569    2.3187169174
H        2.9667667949    0.4256212843    2.7530088656
H        2.9770527699   -1.3243364440    2.4316602216
H        1.7190004350   -0.6348146159    3.4602876196
29   

C        1.3812342276   -3.2334999873   -1.6076431578
C        0.3096712198   -3.0564033884   -0.7386567693
C        5.0309432285    1.2394187486   -1.7198527048
C        5.9392642773    1.1658441121   -0.6724711416
C        2.4906246758   -2.3939029926   -1.5127153182
C        0.3571074143   -2.0413415989    0.2195722631
C        3.9197296964    0.4063568014   -1.6571654193
C        5.7096100809    0.2724668728    0.3778368279
C        2.5583084555   -1.3783464323   -0.5403298445
C        1.4700021642   -1.1892996477    0.3425913224
C        3.7321844934   -0.4523649052   -0.5630165356
C        0.2024094312    0.5807754374    1.5521618702
C        2.3905256738   -0.2659245606    2.4472990696
N        4.6351801115   -0.5277637429    0.4298529536
N        1.4396195124   -0.1825873797    1.3263189598
H        1.3533519119   -4.0174057717   -2.3559703338
H       -0.5575638750   -3.7036188840   -0.8031454032
H        5.1802640560    1.9188318364   -2.5526467015
H        6.8239998075    1.7895800528   -0.6608137399
H        3.3184467494   -2.5290269966   -2.2000109455
H       -0.4814754830   -1.9245954613    0.8927613298
H        3.1768011449    0.4184118991   -2.4440795967
H        6.4310167665    0.2215534433    1.1848761584
H       -0.3576588395    0.6844868247    0.6173496008
H        0.4429263220    1.5858625088    1.9121564260
H       -0.4278514711    0.0764315003    2.2913954034
H        3.0452665145    0.6100712625    2.4580653277
H        3.0019978894   -1.1704466259    2.3730350963
H        1.8486889353   -0.3204746621    3.3964489844
29   

C        1.4264746594   -3.3431306937   -1.5220661067
C        0.3169329749   -3.1089747821   -0.7155845533
C        4.8711041132    1.4278832321   -1.4742325263
C        5.9061663346    1.1617678703   -0.5872130481
C        2.5339344998   -2.5007144109   -1.4305769924
C        0.3271843356   -2.0402393290    0.1846084023
C        3.7729615983    0.5759716976   -1.4434791423
C        5.8063233929    0.0724494726    0.2837762105
C        2.5532663036   -1.4205297239   -0.5308131465
C        1.4388224997   -1.1851560542    0.3065367206
C        3.7324648196   -0.4984879779   -0.5440002479
C        0.1312075123    0.5676191114    1.5157062377
C        2.4380321409   -0.0640401801    2.2862450273
N        4.7432194702   -0.7445978075    0.3071445598
N        1.3957422764   -0.1357542494    1.2478437877
H        1.4294658570   -4.1730167160   -2.2195748010
H       -0.5494019370   -3.7574160791   -0.7797421469
H        4.9152380927    2.2658146886   -2.1622498924
H        6.7889610683    1.7878926490   -0.5619700450
H        3.3937893419   -2.6773553026   -2.0672892355
H       -0.5386116114   -1.8913873567    0.8152696612
H        2.9312223684    0.7316418367   -2.1057868325
H        6.6225174761   -0.1220539144    0.9695997202
H       -0.4563688540    0.6578907656    0.5965491260
H        0.3345971634    1.5785876294    1.8822988510
H       -0.4547270466    0.0273166763    2.2658789010
H        3.0809344194    0.8057746522    2.1248129124
H        3.0488884409   -0.9717835430    2.2870990283
H        1.9772334164    0.0093323147    3.2760481356
29   

C        1.4970992620   -3.4498288966   -1.4664560510
C        0.3537887473   -3.1716242061   -0.7235164411
C        4.7751338026    1.5772212667   -1.1380741876
C        5.9125225928    1.1348499633   -0.4747157275
C        2.5973188947   -2.5974810074   -1.3818409567
C        0.3262283865   -2.0549260473    0.1163389958
C        3.6826596003    0.7182426567   -1.1683278197
C        5.9129069401   -0.1255723499    0.1310144908
C        2.5690204850   -1.4542970481   -0.5644046727
C        1.4305544742   -1.1887652107    0.2332051341
C        3.7544909867   -0.5434834537   -0.5614832982
C        0.0839429048    0.5517858369    1.4279181640
C        2.4535632096    0.0795354647    2.1196190021
N        4.8546742695   -0.9487047579    0.0968684957
N        1.3683558459   -0.1065233488    1.1391510130
H        1.5326695042   -4.3221897438   -2.1090418274
H       -0.5073668230   -3.8272119132   -0.7846057010
H        4.7373289492    2.5531780993   -1.6108338930
H        6.7971542699    1.7562710104   -0.4173149777
H        3.4865823030   -2.8106056832   -1.9648921250
H       -0.5627006452   -1.8833078895    0.7074790959
H        2.7602382368    1.0076571304   -1.6552041100
H        6.8056423047   -0.4529741020    0.6508346061
H       -0.5218461497    0.6198508649    0.5187374565
H        0.2564634478    1.5701826386    1.7898303438
H       -0.4685844586   -0.0072467234    2.1896474470
H        3.0356355047    0.9746086777    1.8826846611
H        3.1179025196   -0.7896114518    2.1361252145
H        2.0361662739    0.1789665022    3.1263054339
29   

C        1.5285882419   -3.5064394706   -1.3889664605
C        0.3619161720   -3.1946903423   -0.6986897274
C        4.7506095998    1.6256614067   -0.8876204079
C        5.9531533616    1.0726294317   -0.4670196651
C        2.6259128759   -2.6504541814   -1.3079192520
C        0.3101878314   -2.0436499150    0.0914719855
C        3.6425961497    0.7871652253   -0.9203690626
C        6.0012067647   -0.2739821599   -0.0933687302
C        2.5725415070   -1.4650597727   -0.5519680131
C        1.4116272999   -1.1728724273    0.2061564846
C        3.7603927920   -0.5630052642   -0.5562964852
C        0.0388675961    0.5793929518    1.3569549039
C        2.4057289397    0.1440432657    2.0779375864
N        4.9277628051   -1.0771936326   -0.1290380705
N        1.3317676309   -0.0718605402    1.0897307650
H        1.5851416915   -4.4075512653   -1.9889447964
H       -0.4974714217   -3.8527188198   -0.7583451362
H        4.6756545259    2.6688544030   -1.1766204213
H        6.8529317060    1.6729145290   -0.4212524361
H        3.5329474242   -2.8914960438   -1.8517625248
H       -0.5954832311   -1.8520730230    0.6500345979
H        2.6722410637    1.1592377999   -1.2239582944
H        6.9456695277   -0.6883051205    0.2393759756
H       -0.5613745498    0.6245740157    0.4426881360
H        0.1988529170    1.6059484899    1.7010964212
H       -0.5134276625    0.0292876733    2.1253846154
H        2.9222806286    1.0880149542    1.8820974957
H        3.1333953162   -0.6728314281    2.0545416457
H        1.9849143665    0.1688012342    3.0878490268
29   

C        1.6077286624   -3.5532561699   -1.3460367096
C        0.4104753706   -3.2277819114   -0.7203107100
C        4.7853364960    1.6353405329   -0.7246163999
C        6.0188268271    1.0285227829   -0.5296854966
C        2.6972381890   -2.6906571634   -1.2394419074
C        0.3213382620   -2.0569668662    0.0345895111
C        3.6642638801    0.8137608588   -0.7205417497
C        6.0853451290   -0.3545559031   -0.3382141048
C        2.6133393498   -1.4811213530   -0.5192632552
C        1.4142511182   -1.1789612701    0.1763363394
C        3.7949077585   -0.5726548544   -0.5330450299
C       -0.0119661100    0.5769012000    1.2566976187
C        2.3152540339    0.1370126934    2.0930789957
N        4.9995270539   -1.1416617424   -0.3372071845
N        1.2925818541   -0.0737916997    1.0504088390
H        1.6943077295   -4.4691908921   -1.9193984271
H       -0.4436325734   -3.8903822763   -0.8013431309
H        4.6973282675    2.7061315516   -0.8763521344
H        6.9296361435    1.6137003386   -0.5247069958
H        3.6221294566   -2.9465779895   -1.7453502121
H       -0.6086272340   -1.8570719131    0.5484578469
H        2.6757726955    1.2299345050   -0.8684625576
H        7.0555218728   -0.8125972384   -0.1853802485
H       -0.5751895780    0.6085523828    0.3186171742
H        0.1312886148    1.6080832907    1.5942312591
H       -0.5934498444    0.0345863114    2.0090215288
H        2.7871723477    1.1164992839    1.9730804027
H        3.0888303064   -0.6358766458    2.0517458218
H        1.8548043763    0.0808241867    3.0843092796
29   

C        1.6447878435   -3.5711313804   -1.2659320130
C        0.4279968517   -3.2265304042   -0.6955195361
C        4.8400096941    1.6380364124   -0.6018938096
C        6.0722432487    1.0010861957   -0.6370944417
C        2.7334440922   -2.7104929803   -1.1415129519
C        0.3188902225   -2.0378776997    0.0244784497
C        3.7078318312    0.8344824196   -0.5333684214
C        6.1273463546   -0.3943210959   -0.6079535965
C        2.6407901632   -1.4782233734   -0.4509408423
C        1.4099696900   -1.1605062222    0.1859902477
C        3.8225811650   -0.5678858160   -0.4941455884
C       -0.0505959395    0.6131930270    1.1905352109
C        2.2218034761    0.1376415939    2.1503472872
N        5.0313623952   -1.1640240481   -0.5426286053
N        1.2552334556   -0.0533762943    1.0519786494
H        1.7478597316   -4.4999060697   -1.8154419493
H       -0.4259538866   -3.8872446178   -0.7920901648
H        4.7601849610    2.7196276873   -0.6356760347
H        6.9902898610    1.5720288396   -0.6939325670
H        3.6626313769   -2.9938535631   -1.6240445415
H       -0.6281466916   -1.8239290494    0.5000296861
H        2.7259695886    1.2887435991   -0.5320582074
H        7.0967143466   -0.8776164332   -0.6419593776
H       -0.5741637778    0.6311918950    0.2293764512
H        0.0884263145    1.6494119555    1.5139739361
H       -0.6685068003    0.0906646323    1.9277268029
H        2.6573157972    1.1401490354    2.1048871305
H        3.0300386034   -0.5983503134    2.1004758717
H        1.7208817665    0.0085912455    3.1148108049
29   

C        1.6850376301   -3.5988716463   -1.1830318621
C        0.4528513287   -3.2318570161   -0.6681954074
C        4.9163314982    1.6276484822   -0.4917344213
C        6.1167025639    0.9873184243   -0.7568930383
C        2.7746672830   -2.7417911334   -1.0464149722
C        0.3301592162   -2.0240213767    0.0123709211
C        3.7821503928    0.8344986089   -0.3591144861
C        6.1376706748   -0.4010860372   -0.8910269049
C        2.6785006656   -1.4835039619   -0.3918546848
C        1.4210212341   -1.1488034358    0.1879897535
C        3.8612798843   -0.5702685624   -0.4669861187
C       -0.0616827488    0.6565418925    1.0986378367
C        2.1255095022    0.1110377436    2.2106930616
N        5.0405885380   -1.1601828051   -0.7607882054
N        1.2346135765   -0.0406812414    1.0445377331
H        1.8005226258   -4.5427752986   -1.7035688507
H       -0.4021875349   -3.8894277464   -0.7759483301
H        4.8588828684    2.7078199254   -0.4064181125
H        7.0331884951    1.5513928385   -0.8746156085
H        3.7045675338   -3.0622423331   -1.5027052707
H       -0.6303605989   -1.7927481278    0.4514391820
H        2.8297193490    1.3205639473   -0.2087790741
H        7.0799236208   -0.8884359734   -1.1124902080
H       -0.5386332230    0.6541694572    0.1133211296
H        0.0842873342    1.6993924560    1.3965086044
H       -0.7257839572    0.1697158614    1.8199782923
H        2.5199018753    1.1304881542    2.2579105129
H        2.9685099883   -0.5847276930    2.1585461857
H        1.5746562307   -0.1029092119    3.1318631621
29   

C        1.7645324386   -3.6026609146   -1.0205148618
C        0.8352483474   -3.4887051015   -0.0022893967
C        5.2452889523    1.4790714700   -0.1100828540
C        6.0480800925    1.1471981213   -1.1878316679
C        2.6603531979   -2.5632051985   -1.2600099885
C        0.7867163268   -2.3163531157    0.7432218938
C        4.1316733199    0.6824427874    0.1338451794
C        5.7229358152    0.0359085589   -1.9620171021
C        2.6706005399   -1.3604149045   -0.4942375382
C        1.6638153730   -1.2388202536    0.5075315017
C        3.8096242397   -0.4083300550   -0.7081950655
C        0.9728548706    1.1299660241    0.3947400640
C        0.9734237850   -0.0673031874    2.6072762878
N        4.6464128405   -0.7251895002   -1.7228922329
N        1.3838712623   -0.0398691562    1.1929426525
H        1.8074219149   -4.5033667253   -1.6223138667
H        0.1386592006   -4.2951953921    0.1962713229
H        5.4849059015    2.3193122104    0.5332865527
H        6.9303795076    1.7280126548   -1.4247437362
H        3.3825674141   -2.7377094254   -2.0492352013
H        0.0119358986   -2.2299612578    1.4926338725
H        3.5560206698    0.9117365436    1.0140686767
H        6.3677309221   -0.2268681945   -2.7924171077
H        1.3142963615    1.0378982979   -0.6410139192
H        1.4010636330    2.0450862094    0.8149777840
H       -0.1183023373    1.2144017627    0.3879330392
H        1.3271434123    0.8330770859    3.1187318229
H        1.4073370131   -0.9344055233    3.1154718118
H       -0.1172826876   -0.1185179722    2.6857031111
