51

C      1.59615   -5.23121   11.33100
C      3.36760   -6.51586    9.57759
C      5.17623   -6.75819   12.65030
C      2.81288   -5.75148   11.83454
C      3.71484   -6.39952   10.94602
C      1.26460   -5.35920    9.99668
C      2.17336   -6.00888    9.10508
C      3.23142   -5.68253   13.21529
C      2.40114   -6.48220   16.20236
C      1.99003   -3.97164   16.27346
C      0.01079   -3.79409    8.70092
C     -4.72526   -6.46606    6.07746
C      0.57798   -7.45296    6.25242
C     -0.72185   -7.22188    7.03394
C      1.79223   -7.39606    7.17496
C     -1.94424   -7.05201    6.13468
C      2.74182   -5.11637   15.59194
N      4.91749   -6.90948   11.36805
N      4.40416   -6.18381   13.60383
N     -3.64146   -6.99826    8.40123
N      2.44792   -5.07991   14.15378
O     -2.89436   -4.78176    7.11265
O      0.02599   -4.95169    9.56254
O      1.79738   -6.09191    7.79080
S     -3.27110   -6.22394    7.10961
H      0.87072   -4.73316   11.96805
H      4.06811   -7.00944    8.91121
H      6.12938   -7.14923   13.00544
H      1.32734   -6.68878   16.12030
H      2.95169   -7.27428   15.68919
H      2.67203   -6.50661   17.26359
H      0.90418   -4.09231   16.16683
H      2.27320   -3.00509   15.84562
H      2.21366   -3.95498   17.34416
H     -1.01625   -3.69859    8.34672
H      0.68244   -3.93324    7.84929
H      0.30837   -2.90463    9.26969
H     -5.53340   -5.91497    6.56006
H     -4.51494   -6.05257    5.08995
H     -4.96174   -7.52899    6.03153
H      0.57048   -8.42212    5.73812
H      0.69071   -6.68009    5.48304
H     -0.58950   -6.32282    7.63880
H     -0.89536   -8.05023    7.72958
H      1.73410   -8.16417    7.95448
H      2.72297   -7.53940    6.61380
H     -1.74101   -6.39315    5.28579
H     -2.34021   -8.00737    5.77715
H      3.81754   -4.95284   15.68641
H     -2.93130   -6.84199    9.12073
H      1.49104   -4.87921   13.89800
