65

C     -2.10341   -2.69973   -4.11573
C      0.35062   -2.90502   -4.12012
C     -1.04982   -4.17340   -5.65627
C     -0.82615   -2.34028   -3.61015
C     -2.22923   -3.62116   -5.14574
C     -0.90905   -5.14677   -6.68950
C      0.22383   -3.83925   -5.15732
C      0.44077   -5.40205   -6.81157
C     -6.39880   -1.48874   -8.29378
C     -2.14652   -5.65359   -7.37410
C     -3.98850   -3.06498   -6.86195
C     -5.14065   -4.96706   -8.05402
C     -2.66210   -0.28291   -0.80863
C     -1.88906    0.87841   -1.42553
C     -3.51599   -4.07354   -5.79915
C     -0.71027   -1.32141   -2.50403
C     -3.37342   -5.49387   -6.41789
C     -5.28813   -3.54169   -7.51722
C      1.18235   -6.32809   -7.72046
C     -6.42811    1.81355   -8.58935
C     -6.89918   -1.65186  -11.54830
C     -4.73709   -7.26702   -7.42457
C     -7.30315    0.64412   -9.04970
C     -6.01039   -0.76302  -10.66830
N      1.12792   -4.59978   -5.88588
N     -4.66258   -5.87221   -7.01430
N     -5.72544   -2.66514   -8.60326
N     -6.52826   -0.57025   -9.31760
O     -6.88360   -1.29379   -7.17360
S     -1.63348   -1.79435   -0.94722
S     -1.31489    0.33113   -3.06945
H     -2.98472   -2.24212   -3.67440
H      1.31825   -2.61919   -3.71363
H     -2.32390   -5.09868   -8.30370
H     -2.04762   -6.70677   -7.65692
H     -4.14749   -2.08458   -6.40358
H     -3.20899   -2.94079   -7.62609
H     -6.11947   -5.31946   -8.39538
H     -4.48048   -4.96082   -8.94646
H     -2.85164   -0.11428    0.25614
H     -3.61510   -0.42801   -1.32342
H     -2.53148    1.75184   -1.57751
H     -1.04194    1.16430   -0.79573
H     -4.30395   -4.14681   -5.04068
H      0.33606   -1.22077   -2.21106
H     -3.20704   -6.18468   -5.58234
H     -6.08244   -3.53200   -6.76957
H      1.83712   -5.78470   -8.41355
H      1.80696   -7.03600   -7.16124
H      0.47559   -6.90813   -8.31861
H     -5.92357    1.55636   -7.65400
H     -5.66595    2.06133   -9.33701
H     -7.03875    2.70761   -8.41928
H     -7.00326   -2.65086  -11.11583
H     -7.90042   -1.21880  -11.63943
H     -6.47482   -1.74890  -12.55408
H     -4.38289   -7.90823   -6.61073
H     -4.14662   -7.50434   -8.32837
H     -5.77989   -7.53089   -7.63137
H     -7.84571    0.90652   -9.96536
H     -8.04166    0.40794   -8.28298
H     -5.91411    0.22766  -11.12265
H     -4.98678   -1.15678  -10.63369
H      2.12830   -4.61761   -5.74759
H     -5.10963   -2.65054   -9.40572
