22   

C        1.8238938797   -0.2070890282    0.1170454807
C        0.5374414537   -0.4647880503    0.5837179246
C        2.9231732174   -0.4412936448    0.9457545114
C        0.3551696680   -0.9612012062    1.8752614739
C        2.7602446371   -0.9282505904    2.2537354472
C        1.4492037168   -1.2002007635    2.7250431333
C        3.9531985060   -1.1290921218    3.0993932345
C        5.2694877430   -0.8026800157    2.8750549637
C        1.1983327763   -1.7642438818    4.1035145068
C        6.3746217888   -1.6108833429    2.2243155503
H        1.9718099421    0.1771393214   -0.8856539068
H       -0.3198394032   -0.2828042681   -0.0543815713
H        3.9180024215   -0.2317799025    0.5709698141
H       -0.6522450585   -1.1634606631    2.2200313843
H        3.7298488021   -1.3035486953    4.1440643000
H        5.7022178323   -0.3425201330    3.7570547965
H        1.7832097130   -2.6777521680    4.2492454573
H        1.4768369784   -1.0315675677    4.8668704919
H        0.1420660695   -2.0156356507    4.2379587673
H        7.1847199384   -1.7954641422    2.9363356635
H        5.9841740032   -2.5733419232    1.8799821771
H        6.7767261578   -1.0679621226    1.3641066645
22   

C        1.9183344808   -0.2777416383    0.1185838818
C        0.6174746984   -0.5044750753    0.5602170481
C        2.9921114203   -0.4761810984    0.9889903740
C        0.3952460324   -0.9337008508    1.8692726287
C        2.7888643338   -0.8920198415    2.3165916628
C        1.4628198723   -1.1326065382    2.7618781080
C        3.9509288606   -1.0579426601    3.2115149556
C        5.2683485942   -0.7942056483    2.9670551580
C        1.1704164884   -1.6401215643    4.1540499497
C        6.2419611261   -1.5944965357    2.1295795955
H        2.0972327573    0.0553854228   -0.8972532499
H       -0.2198948841   -0.3517619453   -0.1111348736
H        3.9967902833   -0.2881628913    0.6303157452
H       -0.6225419166   -1.1173185285    2.1933797365
H        3.7030021233   -1.1413231018    4.2621052745
H        5.7822489036   -0.4269998152    3.8489913684
H        1.7666143619   -2.5341697823    4.3621098700
H        1.4053139043   -0.8692990938    4.8939235324
H        0.1152340545   -1.9095605800    4.2590353349
H        7.0998470103   -1.9037224951    2.7342406637
H        5.7522086428   -2.4888576010    1.7321632255
H        6.5998651449   -0.9888065930    1.2919910040
22   

C        1.9917915850   -0.3489969851    0.1221959663
C        0.6818365618   -0.5520885053    0.5468538346
C        3.0465616539   -0.4987248768    1.0249047220
C        0.4314157461   -0.9073547558    1.8724888301
C        2.8154364435   -0.8377613234    2.3709119676
C        1.4791243232   -1.0523455755    2.7983627011
C        3.9496860461   -0.9540397934    3.3096488035
C        5.2718480682   -0.8033437466    3.0405424708
C        1.1576179523   -1.4986859170    4.2049748037
C        6.1010109956   -1.6096942927    2.0681300118
H        2.1926159820   -0.0702729271   -0.9058463456
H       -0.1404884261   -0.4390204573   -0.1504459798
H        4.0551494791   -0.3217885674    0.6738539816
H       -0.5927761441   -1.0783267502    2.1830016887
H        3.6919865511   -0.9501577118    4.3614398399
H        5.8576031177   -0.5054431268    3.9034995682
H        1.7703393229   -2.3648704328    4.4744883904
H        1.3488642704   -0.6868389647    4.9125504624
H        0.1078215645   -1.7947351172    4.2909101054
H        6.9752434970   -2.0296848837    2.5745422200
H        5.5088771539   -2.4316259232    1.6536663302
H        6.4424832600   -0.9718322933    1.2476946473
22   

C        2.0318559874   -0.3945842875    0.1304415782
C        0.7175281641   -0.5867458214    0.5443888883
C        3.0749005033   -0.5037359250    1.0522010462
C        0.4508629798   -0.8874260817    1.8797627866
C        2.8291929341   -0.7905430184    2.4091641409
C        1.4862260117   -0.9883273408    2.8252507145
C        3.9408906428   -0.8659347598    3.3788418925
C        5.2662531168   -0.8478981216    3.1106868506
C        1.1461876464   -1.3889988442    4.2413210248
C        5.9805488523   -1.6240643588    2.0322286914
H        2.2454052828   -0.1531387020   -0.9044503028
H       -0.0953679067   -0.5065883490   -0.1683571160
H        4.0820377006   -0.3226404006    0.7023682043
H       -0.5766025797   -1.0524807398    2.1824842094
H        3.6784648463   -0.8008390169    4.4276076548
H        5.8956558806   -0.6283567658    3.9663014931
H        1.7706008712   -2.2319427008    4.5544855207
H        1.3063248231   -0.5480946728    4.9219546102
H        0.1016393292   -1.7056825544    4.3174468742
H        6.8492915265   -2.1381801285    2.4542169100
H        5.3150212199   -2.3740221584    1.5932338273
H        6.3252582496   -0.9468398477    1.2453357188
22   

C        2.0535810038   -0.4207018890    0.1368668681
C        0.7393586131   -0.6100145745    0.5501546774
C        3.0934586752   -0.4962645059    1.0653316507
C        0.4694986401   -0.8706702533    1.8927206581
C        2.8468140678   -0.7478440385    2.4304152912
C        1.5013860218   -0.9355559233    2.8452690274
C        3.9458931223   -0.7887228665    3.4177773021
C        5.2640742623   -0.9128678013    3.1642209043
C        1.1560978426   -1.3032151455    4.2691385263
C        5.8994606687   -1.6321136966    2.0022226780
H        2.2696893611   -0.2045928816   -0.9030930064
H       -0.0707969794   -0.5570592937   -0.1682305301
H        4.0952100162   -0.3033631054    0.7093363708
H       -0.5580709809   -1.0344216743    2.1957065844
H        3.6843034583   -0.6786665330    4.4630944946
H        5.9159469286   -0.7730988260    4.0197200579
H        1.7924247154   -2.1260213097    4.6107855219
H        1.2943811388   -0.4413585468    4.9278237617
H        0.1172229144   -1.6382708845    4.3446023466
H        6.7612558255   -2.2091085609    2.3507465818
H        5.1911202147   -2.3263976201    1.5395037652
H        6.2474063860   -0.9131202625    1.2547841904
22   

C        2.0629796333   -0.4432211950    0.1397020507
C        0.7492917071   -0.6222579767    0.5573866033
C        3.1032782470   -0.4975045465    1.0690274092
C        0.4803157113   -0.8485757362    1.9058951971
C        2.8595696995   -0.7188581567    2.4407434345
C        1.5125301485   -0.8905700725    2.8594949793
C        3.9528406501   -0.7386497734    3.4356488000
C        5.2544893322   -0.9988925713    3.2117394484
C        1.1655652273   -1.2283323831    4.2905066362
C        5.8636128270   -1.6272916029    1.9867068803
H        2.2785436670   -0.2496188702   -0.9048032174
H       -0.0610118335   -0.5867517267   -0.1619059268
H        4.1005926565   -0.3026602866    0.7039114397
H       -0.5471946528   -1.0048275631    2.2129413907
H        3.6914950666   -0.6005130017    4.4777064967
H        5.9040451725   -0.9403749317    4.0783408543
H        1.8047225959   -2.0405463957    4.6517839148
H        1.2975129565   -0.3516190813    4.9304995576
H        0.1284680836   -1.5678374688    4.3705945349
H        6.7294477963   -2.2304570596    2.2758382733
H        5.1481019978   -2.2880746641    1.4877514328
H        6.2052062206   -0.8549921140    1.2913246318
22   

C        2.0589635884   -0.4656190845    0.1389581164
C        0.7457546200   -0.6236756436    0.5652209935
C        3.1026179460   -0.5086506966    1.0650476996
C        0.4806074512   -0.8162939603    1.9193643769
C        2.8641086041   -0.6975869135    2.4429809536
C        1.5161818993   -0.8455654703    2.8698583337
C        3.9580651193   -0.7077045078    3.4381311429
C        5.2327158947   -1.0947516037    3.2469790540
C        1.1703436732   -1.1534238132    4.3080243294
C        5.8574555298   -1.6106930191    1.9790487789
H        2.2718154179   -0.2962091677   -0.9102981364
H       -0.0670205116   -0.5978163834   -0.1516903355
H        4.0970982034   -0.3253739716    0.6880796317
H       -0.5469111262   -0.9575773244    2.2334915569
H        3.6968005381   -0.5531447885    4.4778475150
H        5.8635514162   -1.1164574046    4.1289939215
H        1.8048314324   -1.9629770159    4.6833606609
H        1.3089842975   -0.2656171205    4.9309826199
H        0.1315553654   -1.4855494459    4.3967288924
H        6.7412420164   -2.2074329850    2.2237617134
H        5.1624217467   -2.2565638789    1.4340256538
H        6.1776743084   -0.7791711586    1.3444353079
22   

C        2.0671777583   -0.4349999408    0.1363004566
C        0.7549784673   -0.4523378987    0.5946924667
C        3.0975245716   -0.9010948793    0.9548075732
C        0.4772957263   -0.9426991095    1.8692444525
C        2.8446591691   -1.4084809087    2.2465575105
C        1.4988824430   -1.4315441664    2.7022950834
C        3.9260596001   -1.9396228117    3.1032682177
C        5.2378426250   -1.6446831955    3.0370857067
C        1.1458388526   -1.8661718682    4.1054059122
C        5.8809450618   -0.4963587654    2.3060412440
H        2.2888976958   -0.0711217554   -0.8603810283
H       -0.0474116013   -0.0858264263   -0.0354453587
H        4.0924040959   -0.9137581520    0.5353243742
H       -0.5482975728   -0.9322532169    2.2192707911
H        3.6481076225   -2.5851507715    3.9274683512
H        5.8749510673   -2.1620607388    3.7461399758
H        1.2420809533   -2.9510280805    4.2026220755
H        1.8062535864   -1.3772339170    4.8289580919
H        0.1192328264   -1.5816051000    4.3551056003
H        6.2061574865   -0.8119298632    1.3103804797
H        5.1926203344    0.3502614572    2.2224332597
H        6.7619352142   -0.1568685491    2.8589233545
22   

C        2.0580580081   -0.4500267408    0.1255977874
C        0.7448753042   -0.4554806337    0.5831433431
C        3.0867069616   -0.8996169009    0.9555685207
C        0.4646804398   -0.9146919575    1.8691705526
C        2.8291081864   -1.3790193285    2.2561006250
C        1.4846685276   -1.3855407030    2.7143208857
C        3.9150337739   -1.8907034038    3.1183492119
C        5.2400121978   -1.6998802725    2.9590494615
C        1.1313425658   -1.7924700331    4.1254797371
C        5.9150569331   -0.5078940355    2.3307756808
H        2.2817189005   -0.1067064752   -0.8779108435
H       -0.0564150480   -0.1027211829   -0.0561754913
H        4.0866940985   -0.9159322036    0.5466614836
H       -0.5612954143   -0.8951102099    2.2177456485
H        3.6353682744   -2.5142682163    3.9586950326
H        5.8747524584   -2.2830270720    3.6173789244
H        1.2329787836   -2.8746665297    4.2450941967
H        1.7886210678   -1.2857878722    4.8395533988
H        0.1026663400   -1.5086999548    4.3673853284
H        6.2499508449   -0.7510358478    1.3181494477
H        5.2363969999    0.3500314265    2.2951330732
H        6.7901697879   -0.2236502375    2.9227783993
22   

C        2.0349158074   -0.4713342955    0.1039469867
C        0.7226280031   -0.4753434462    0.5661282527
C        3.0700336569   -0.8861219147    0.9441739457
C        0.4500562082   -0.8946634449    1.8678993885
C        2.8177360668   -1.3290617652    2.2572417952
C        1.4769584210   -1.3284083469    2.7243150780
C        3.9198344465   -1.7996901563    3.1208236859
C        5.2469771090   -1.7224261708    2.8729396210
C        1.1332241443   -1.7012185537    4.1470860196
C        5.9987333743   -0.5274471151    2.3412925180
H        2.2527708295   -0.1538202662   -0.9092784015
H       -0.0840023685   -0.1507881369   -0.0813624786
H        4.0748887399   -0.8952977113    0.5445812312
H       -0.5751105313   -0.8744254793    2.2188889532
H        3.6430914561   -2.3851400446    3.9889662071
H        5.8587634416   -2.3712128690    3.4903668692
H        1.2588560030   -2.7770969594    4.2978596277
H        1.7801809977   -1.1600709019    4.8450258554
H        0.0983397078   -1.4344003868    4.3815793043
H        6.3304812687   -0.7159203512    1.3160705880
H        5.3631388313    0.3635844855    2.3540592431
H        6.8787099374   -0.3326812245    2.9616238180
22   

C        1.9937622363   -0.4944365421    0.0766004293
C        0.6846623863   -0.4949486707    0.5497208436
C        3.0389929542   -0.8712665913    0.9223820139
C        0.4256542855   -0.8694793730    1.8683869837
C        2.7983672414   -1.2711830044    2.2498843775
C        1.4633083268   -1.2623124349    2.7314568540
C        3.9214517437   -1.6985684586    3.1090830210
C        5.2419759419   -1.7308743493    2.7963906330
C        1.1351941917   -1.5976756877    4.1670718382
C        6.1077973731   -0.5631689280    2.3833631955
H        2.2011218856   -0.2070121493   -0.9477409153
H       -0.1301939259   -0.2013045581   -0.1022068713
H        4.0466370056   -0.8760820672    0.5268578840
H       -0.5971069172   -0.8480638102    2.2263251679
H        3.6481882910   -2.2394864208    4.0065492903
H        5.8064744842   -2.4531002379    3.3762826740
H        1.2883602965   -2.6649516943    4.3508522779
H        1.7722004378   -1.0193167681    4.8438879894
H        0.0946747531   -1.3507365102    4.3982531612
H        6.4446435168   -0.6929114828    1.3507600381
H        5.5447313459    0.3725664686    2.4563093363
H        6.9850504473   -0.4945415328    3.0336143176
22   

C        1.9185617686   -0.5525210408    0.0360077578
C        0.6188309440   -0.5409066350    0.5352539378
C        2.9844482346   -0.8698184793    0.8805124351
C        0.3900130734   -0.8417424257    1.8785287386
C        2.7739010709   -1.1922928157    2.2327078900
C        1.4493738958   -1.1698436598    2.7423155213
C        3.9266234170   -1.5531267161    3.0810851179
C        5.2385905003   -1.6996196582    2.7315325726
C        1.1515605662   -1.4443291009    4.1973710160
C        6.2506737079   -0.6176219663    2.4240520013
H        2.1025695063   -0.3193240816   -1.0064242262
H       -0.2124403492   -0.2955828405   -0.1159190892
H        3.9881240878   -0.8807372095    0.4732121890
H       -0.6263720739   -0.8163319214    2.2539869405
H        3.6651013806   -2.0151940358    4.0246188500
H        5.7264094822   -2.4872281270    3.2958484799
H        1.3504841275   -2.4941902083    4.4318565311
H        1.7723803180   -0.8077374249    4.8356443056
H        0.1039035037   -1.2310464134    4.4296513026
H        6.6016708215   -0.7166665847    1.3927886143
H        5.7965743810    0.3704764962    2.5470767435
H        7.1086474636   -0.6958280235    3.0985682441
22   

C        1.8215680076   -0.6081660397   -0.0009520876
C        0.5369179220   -0.5839041290    0.5359258460
C        2.9148658559   -0.8748456006    0.8258536317
C        0.3506658400   -0.8206528590    1.8986416830
C        2.7473863716   -1.1288996072    2.1976765631
C        1.4385474935   -1.0939701490    2.7459729019
C        3.9329503842   -1.4362005917    3.0214303385
C        5.2415866369   -1.6451174488    2.6562640925
C        1.1845712378   -1.3152883422    4.2183103534
C        6.3814341860   -0.6558966561    2.5141390567
H        1.9726072035   -0.4235955906   -1.0583250325
H       -0.3158010106   -0.3795797291   -0.1015233519
H        3.9081870089   -0.8951786473    0.3934833246
H       -0.6550003664   -0.7905332376    2.3016153333
H        3.6992807476   -1.8194281693    4.0064155044
H        5.6461094796   -2.5098999324    3.1714709695
H        1.4277000445   -2.3463917670    4.4918121800
H        1.7960194503   -0.6299774952    4.8135397962
H        0.1349307883   -1.1324316522    4.4668885073
H        6.7794740656   -0.6893171122    1.4958774274
H        6.0267368824    0.3588479358    2.7186471503
H        7.1858832919   -0.8944908501    3.2164458994
