21   

C        0.9864210622   -5.3994528892   -1.6626502501
C        0.6617339042   -4.1891036090   -0.9517962436
C        1.7445803214   -5.0190290704   -2.7332689955
C        1.2475867850   -3.1610821226   -1.6450271024
C       -0.6436013135   -0.6642242857    1.3218776903
C        0.5962538784   -1.1149995879   -0.3966658245
C        0.3720731225    0.3576408570   -0.3744605362
C        1.2538846687   -1.7559778712   -1.4015432342
C       -1.0315604045    1.8329290543    1.0960905203
N       -0.0837800160   -1.6691665385    0.6828052021
N       -0.3754694034    0.5846345795    0.7508648545
O        0.7397233930    1.2034115325   -1.1801555163
O        1.9149389280   -3.6578199971   -2.7397852979
H        0.6926102051   -6.4105978529   -1.4063175346
H        0.0712082241   -4.1063914321   -0.0470850759
H        2.1556619840   -5.6933809283   -3.4756874388
H       -1.2574630188   -0.7981643379    2.2059386410
H        1.7613736421   -1.1435078075   -2.1372528291
H       -0.6382054616    2.2145152692    2.0435388290
H       -2.1123152805    1.6844612158    1.1845548461
H       -0.8540587949    2.5866433545    0.3217622163
21   

C        0.8548075000   -5.3668112987   -1.6848602418
C        0.6466736599   -4.1630908919   -0.9208985709
C        1.6250035786   -5.0089280184   -2.7548232564
C        1.3064519106   -3.1616079288   -1.5854559118
C       -0.4753792566   -0.6619010248    1.4184273753
C        0.8021873572   -1.1112425212   -0.2722271065
C        0.4293068800    0.3303956923   -0.3545583956
C        1.4309071601   -1.7736747619   -1.2847011590
C       -1.1383569462    1.7477506757    0.9976778490
N        0.1764028676   -1.6514412730    0.8459319571
N       -0.3285621648    0.5656437902    0.7624428877
O        0.6899195726    1.1414375054   -1.2342948638
O        1.9110905136   -3.6679438304   -2.7116550084
H        0.4798784833   -6.3590231782   -1.4626142657
H        0.0811313103   -4.0660357963   -0.0017110531
H        1.9644039852   -5.6849133818   -3.5312152791
H       -1.0756620591   -0.7933813850    2.3121350271
H        1.9391645511   -1.1744728258   -2.0306660073
H       -0.8001402866    2.2600410415    1.9038140895
H       -2.1922813757    1.4736105873    1.1073929746
H       -1.0543409339    2.4446106280    0.1571359876
21   

C        0.7107121511   -5.2828785622   -1.6965365882
C        0.6168310623   -4.0947138096   -0.8868007182
C        1.5098931517   -4.9581819411   -2.7560392284
C        1.3663218904   -3.1354582557   -1.5167937143
C       -0.3197730170   -0.6481647216    1.5082730671
C        1.0058002891   -1.0853992945   -0.1486029560
C        0.4940349058    0.3063717656   -0.3267242887
C        1.6121981255   -1.7785435713   -1.1590769205
C       -1.2241630121    1.6419557819    0.9172897529
N        0.4224544494   -1.6086140489    0.9998574512
N       -0.2837671713    0.5443504541    0.7760838633
O        0.6642085571    1.0704849439   -1.2684095552
O        1.9205732183   -3.6525197873   -2.6636306365
H        0.2449966688   -6.2435590254   -1.5103713264
H        0.0651531929   -3.9782071496    0.0386106381
H        1.7833669457   -5.6327432756   -3.5592367464
H       -0.9122220711   -0.7784156268    2.4073763167
H        2.1411213988   -1.1987775080   -1.9058950476
H       -0.9526725017    2.2599221544    1.7788329836
H       -2.2411211676    1.2599235906    1.0508156269
H       -1.2140529576    2.2746662177    0.0235442408
21   

C        0.5139662635   -5.1776324544   -1.6689682943
C        0.5027616974   -3.9966430535   -0.8433151886
C        1.3612759889   -4.9076932321   -2.7065910340
C        1.3441150094   -3.0970365077   -1.4433762583
C       -0.3113524045   -0.5945129485    1.5358890213
C        1.0756868698   -1.0277041158   -0.0717171257
C        0.4170229356    0.2822662609   -0.3704041882
C        1.6839460228   -1.7716044945   -1.0516367383
C       -1.4563544464    1.5171324718    0.7406931824
N        0.5297824963   -1.5131100596    1.1109008817
N       -0.3884976886    0.5331090859    0.7095192162
O        0.5022732736    0.9689269223   -1.3807089911
O        1.8795670185   -3.6433003059   -2.5852682149
H       -0.0353865164   -6.0978066986   -1.5078580305
H       -0.0558170606   -3.8435144191    0.0726782734
H        1.5938705459   -5.5917424630   -3.5146334290
H       -0.9000378940   -0.7126546640    2.4391343740
H        2.2516183176   -1.2256463976   -1.7952313611
H       -1.2123393126    2.3118645875    1.4525285215
H       -2.4014138236    1.0485001983    1.0326999292
H       -1.5942328268    1.9674588863   -0.2479804501
21   

C        0.3675910308   -5.0436146365   -1.6802182971
C        0.4451905760   -3.8820594784   -0.8306655940
C        1.2728936773   -4.8413570219   -2.6841977664
C        1.3912458149   -3.0616969828   -1.3850152902
C       -0.1874380090   -0.5598064854    1.5868263410
C        1.2376625466   -0.9847000124    0.0090996324
C        0.4558159913    0.2319351040   -0.3854946546
C        1.8321126564   -1.7846952275   -0.9451805925
C       -1.5214078680    1.3715791205    0.6435157329
N        0.7323036572   -1.4289121596    1.2253325075
N       -0.3665132371    0.4914120480    0.6796034985
O        0.4662285978    0.8358327657   -1.4506514157
O        1.9107577507   -3.6380290156   -2.5190330118
H       -0.2758488812   -5.9069395055   -1.5572121351
H       -0.1244991330   -3.6870351013    0.0705043133
H        1.4632532490   -5.5301771945   -3.4992139477
H       -0.7639398766   -0.6634769339    2.4996609524
H        2.4630308342   -1.2813661946   -1.6671900173
H       -1.3529243147    2.2366773757    1.2924101020
H       -2.4190934751    0.8406164816    0.9755373905
H       -1.6997879442    1.7319217999   -0.3751194606
21   

C        0.2149972291   -4.8803484697   -1.7077103216
C        0.3639681212   -3.7385163865   -0.8409245807
C        1.1962296887   -4.7704131438   -2.6534839068
C        1.4236587846   -3.0222743123   -1.3284251283
C       -0.0742474594   -0.5086093482    1.6365956855
C        1.3705463739   -0.9368443984    0.0757612392
C        0.4795648465    0.1738478845   -0.4017708267
C        1.9564145187   -1.8024124756   -0.8388931430
C       -1.5780772949    1.2202407518    0.5656961690
N        0.9113390419   -1.3245752529    1.3288636113
N       -0.3502679546    0.4489802603    0.6534606644
O        0.4190291911    0.6816937079   -1.5142521547
O        1.9490893409   -3.6445463663   -2.4346279058
H       -0.5232844950   -5.6703621873   -1.6349161094
H       -0.2332151759   -3.4866448429    0.0277618098
H        1.3601366689   -5.4699542467   -3.4651035671
H       -0.6318548486   -0.5882113591    2.5634828179
H        2.6865825068   -1.3640895155   -1.5071424870
H       -1.4818902998    2.1438755210    1.1449019431
H       -2.4238643634    0.6404511369    0.9483889282
H       -1.7937271196    1.4849674590   -0.4748457632
21   

C        1.4873634154   -4.8673105252   -0.8794814421
C        0.6135234838   -3.7309630574   -0.7297559678
C        2.0520852957   -4.7520016998   -2.1193066384
C        0.7162964637   -3.0122420054   -1.8901488739
C       -1.5954308393   -0.5202619891    0.5141735736
C       -0.6030344879   -0.9354071219   -1.3703107843
C        0.1360089879    0.1789943531   -0.6868959029
C        0.0701854652   -1.7958744620   -2.2280776442
C       -0.0997743321    1.2203063288    1.5781784867
N       -1.6288189801   -1.3325989460   -0.5206441966
N       -0.5822969213    0.4433542621    0.4497216653
O        1.2007278798    0.6958895502   -1.0005421017
O        1.5884145164   -3.6279037317   -2.7546586545
H        1.6691180464   -5.6573980458   -0.1603103213
H       -0.0084633101   -3.4842477669    0.1228465752
H        2.7671223584   -5.4465705006   -2.5450376169
H       -2.2828963508   -0.6067777802    1.3486105385
H        0.4547337986   -1.3540150146   -3.1384131396
H       -0.0721753969    0.6055495223    2.4833046814
H       -0.7523532615    2.0828079690    1.7455784224
H        0.9139405221    1.5882043895    1.3876574672
21   

C        1.4114957869   -5.0280910991   -1.0095714572
C        0.5755095253   -3.8727242654   -0.8016895878
C        2.0586455295   -4.8205249833   -2.1955461076
C        0.7801961687   -3.0503278531   -1.8773973169
C       -1.5135596001   -0.5691355914    0.5994975966
C       -0.4997111440   -0.9820044112   -1.2722678490
C        0.1227949196    0.2391478024   -0.6657930227
C        0.2101529669   -1.7775071887   -2.1482907439
C       -0.1934572121    1.3699520329    1.5460794425
N       -1.4743159002   -1.4350667670   -0.3907040582
N       -0.6056724796    0.4882721268    0.4679125416
O        1.1180460160    0.8516462991   -1.0314418294
O        1.6831945600   -3.6197071949   -2.7425438348
H        1.5141717564   -5.8910240053   -0.3620535211
H       -0.0884260066   -3.6831411349    0.0337199887
H        2.7701208758   -5.5039188636   -2.6446953178
H       -2.1804975616   -0.6795647533    1.4476507199
H        0.6789350930   -1.2711322875   -2.9828756613
H       -0.0874642365    0.8094916123    2.4802314834
H       -0.9322809074    2.1657349529    1.6826479565
H        0.7722417076    1.8329724986    1.3174353535
21   

C        1.3523550150   -5.1654359480   -1.1477062866
C        0.5697661849   -3.9895883363   -0.8621958339
C        2.0491221286   -4.8897663245   -2.2904832453
C        0.8517395550   -3.0869288566   -1.8536782967
C       -1.4210432724   -0.6044954647    0.7010838873
C       -0.3656152898   -1.0257486745   -1.1444385405
C        0.1265429533    0.2864747633   -0.6203466616
C        0.3619542210   -1.7641407228   -2.0437778789
C       -0.3062402635    1.5146834495    1.5194505339
N       -1.2958823165   -1.5191590161   -0.2368117402
N       -0.6221419210    0.5277081304    0.5018131423
O        1.0453607860    0.9804196159   -1.0371306553
O        1.7551984794   -3.6266099877   -2.7377472077
H        1.3879312109   -6.0861429862   -0.5771807550
H       -0.1104317751   -3.8418672385   -0.0315449346
H        2.7387382998   -5.5689557581   -2.7784249198
H       -2.0756951160   -0.7287854393    1.5568519769
H        0.8720324755   -1.2144326781   -2.8253772207
H       -0.1573835865    1.0304964379    2.4897105187
H       -1.1183823992    2.2439818175    1.5991554463
H        0.6138531178    2.0506676064    1.2637471435
21   

C        1.2990476184   -5.2835579101   -1.2869534897
C        0.5812545770   -4.0903528110   -0.9165027953
C        2.0315171381   -4.9579714688   -2.3933733446
C        0.9329913072   -3.1275586062   -1.8264823296
C       -1.3211304491   -0.6354640468    0.7992781454
C       -0.2117997234   -1.0708853665   -1.0099081261
C        0.1433734913    0.3136965119   -0.5769861681
C        0.5281145290   -1.7653216447   -1.9262473973
C       -0.4333997023    1.6387580213    1.4708310811
N       -1.1025500151   -1.5916557887   -0.0780979356
N       -0.6312401922    0.5519997405    0.5280058900
O        0.9815159405    1.0721990138   -1.0479338733
O        1.8207775661   -3.6470658108   -2.7384640653
H        1.2697709403   -6.2479890295   -0.7935258912
H       -0.1033401913   -3.9729303767   -0.0847204348
H        2.6884254537   -5.6355482124   -2.9265772813
H       -1.9695948015   -0.7654451203    1.6588989219
H        1.0597464331   -1.1853583989   -2.6709868108
H       -0.2419283726    1.2452156507    2.4740490309
H       -1.3203130419    2.2795459636    1.4958581423
H        0.4256450261    2.2512348423    1.1773549000
21   

C        1.2380747289   -5.3674750437   -1.4160014032
C        0.6021403384   -4.1600446235   -0.9538263741
C        1.9897374197   -5.0099359517   -2.4991793983
C        1.0163809081   -3.1569433341   -1.7917405895
C       -1.1846011228   -0.6522026395    0.9156960705
C       -0.0276395550   -1.1017953994   -0.8594618085
C        0.1912724025    0.3351383300   -0.5257167381
C        0.7064479559   -1.7654612311   -1.7974803978
C       -0.5356507481    1.7454608520    1.4173001824
N       -0.8755196382   -1.6395973217    0.1025139964
N       -0.6038177959    0.5719276038    0.5648138447
O        0.9413734784    1.1416329639   -1.0610327777
O        1.8673403414   -3.6657257933   -2.7442599996
H        1.1443549552   -6.3617946773   -0.9952927761
H       -0.0715749798   -4.0617062302   -0.1108544062
H        2.5989001725   -5.6883926849   -3.0853109298
H       -1.8251242896   -0.7829473446    1.7811313216
H        1.2440249193   -1.1668084447   -2.5230548397
H       -0.3154761697    1.4560505967    2.4496349202
H       -1.4864721290    2.2867118352    1.3871459883
H        0.2563521298    2.4214134143    1.0781786452
21   

C        1.1766945245   -5.4045643231   -1.5224857236
C        0.6279246187   -4.1929364482   -0.9688734476
C        1.9335735359   -5.0235269809   -2.5937984329
C        1.0934483572   -3.1636478955   -1.7463287572
C       -1.0420249963   -0.6661881200    1.0495936713
C        0.1563502290   -1.1150645550   -0.6984757139
C        0.2236640411    0.3550584044   -0.4688024552
C        0.8749749127   -1.7572185426   -1.6600501781
C       -0.6661378756    1.8223551382    1.3640789706
N       -0.6364658210   -1.6694426599    0.3008507379
N       -0.5854426994    0.5823508012    0.6131428416
O        0.8686320150    1.1991366193   -1.0780519297
O        1.8952921575   -3.6607523807   -2.7465928865
H        1.0244903239   -6.4169159563   -1.1669241313
H       -0.0247616219   -4.1102086423   -0.1079278091
H        2.4881010930   -5.6985382908   -3.2355009512
H       -1.6686721443   -0.8012074794    1.9244758181
H        1.4028730212   -1.1447404707   -2.3812421799
H       -0.4238189593    1.6477667464    2.4170304732
H       -1.6740753539    2.2422503529    1.2882238632
H        0.0437778622    2.5569070625    0.9695882789
21   

C        1.0841371107   -5.4207244194   -1.6015070425
C        0.6438699651   -4.2067347236   -0.9627742825
C        1.8393175537   -5.0340026498   -2.6719130487
C        1.1653278767   -3.1702927764   -1.6940472391
C       -0.8619061457   -0.6730894496    1.1899357159
C        0.3671646459   -1.1233858263   -0.5374079831
C        0.2901810185    0.3585149198   -0.4129051289
C        1.0559224634   -1.7584923616   -1.5241054217
C       -0.7862283847    1.8642639724    1.2893841065
N       -0.3686643123   -1.6815822624    0.5033079233
N       -0.5203061657    0.5791673718    0.6688400358
O        0.8211950791    1.2179736093   -1.1049616749
O        1.9006300014   -3.6654844945   -2.7451599405
H        0.8648232177   -6.4382703968   -1.2999339182
H        0.0227794631   -4.1276727988   -0.0784567128
H        2.3237535170   -5.7090560209   -3.3680051880
H       -1.4748353663   -0.8065309488    2.0747110324
H        1.5716000866   -1.1424757194   -2.2511263941
H       -0.5300819454    1.8341400407    2.3530220663
H       -1.8434029505    2.1247233121    1.1769568230
H       -0.1858836534    2.6490729606    0.8173186989
