27

C     -1.05044   -0.68986    2.40918
C      0.89069   -5.59868    6.34162
C     -0.05787   -0.30803    1.50014
C      0.48203   -6.21181    5.15325
C     -0.66594   -1.29086    3.60514
C      1.12642   -4.22593    6.37406
C      1.27545   -0.54810    1.83660
C      0.32469   -5.39805    4.03190
C      0.69875   -1.48938    3.83678
C      0.94066   -3.50104    5.18100
C      1.77723   -1.30123    6.03002
C      1.87403    0.18230    5.72263
N      1.65489   -1.13172    2.98357
N      0.54777   -4.07936    4.03919
N      1.12315   -2.09120    5.07775
O      2.24071   -1.76128    7.06753
H     -2.10141   -0.52012    2.19062
H      1.02681   -6.18387    7.24758
H     -0.30768    0.16447    0.55469
H      0.29220   -7.27934    5.09502
H     -1.39282   -1.61305    4.34375
H      1.45282   -3.72940    7.27466
H      2.07816   -0.26364    1.15853
H      0.00811   -5.81865    3.07842
H      0.92219    0.60059    5.38453
H      2.60839    0.35490    4.93185
H      2.19692    0.68242    6.63575
