30

C      4.08857   -0.30940    7.36644
C      1.90452   -2.18288    0.27986
C      4.42526   -0.19929    6.01310
C      2.82136   -0.79093    7.71462
C      0.78067   -1.49048    0.74753
C      2.82684   -2.66826    1.20305
C      3.51585   -0.56025    5.01699
C      1.91529   -1.17846    6.72666
C      0.61511   -1.25998    2.11030
C      2.64538   -2.49877    2.58486
C      2.25470   -1.07025    5.36742
C      1.54065   -1.74559    3.05540
C      3.65296   -3.16995    3.45916
C      4.06125   -4.16763    5.55802
N      1.30568   -1.46887    4.40553
O      4.82810   -3.30548    3.16015
O      3.11686   -3.65145    4.59969
H      4.79943   -0.02219    8.13604
H      2.05415   -2.34316   -0.78369
H      5.40100    0.18252    5.72380
H      2.54139   -0.88294    8.76109
H      0.04512   -1.10296    0.04721
H      3.70394   -3.21687    0.87362
H      3.78773   -0.44600    3.97286
H      0.94671   -1.58940    7.00239
H     -0.23082   -0.67186    2.46021
H      3.46051   -4.49950    6.40433
H      4.74647   -3.37403    5.86586
H      4.62768   -4.99861    5.13176
H      0.35315   -1.20428    4.62000
