30

C      5.23964   -1.88242   -1.51201
C      5.63805   -2.21580   -0.21432
C      4.17943   -0.98874   -1.70118
C      4.98080   -1.65464    0.88493
C      3.52919   -0.42390   -0.60163
C      3.92734   -0.75138    0.70121
C      6.49083    1.30267    2.36319
C      7.70713    0.78499    3.11252
C      3.15431    2.16020    3.11274
C      3.27396   -0.08648    1.89102
C      4.00995    1.24179    2.24656
N      5.27842    0.93066    2.88598
O      6.59702    1.99090    1.35067
O      2.62474    1.37818    4.20409
O      1.89542    0.15278    1.60382
H      5.74719   -2.31837   -2.36876
H      6.45516   -2.91563   -0.05746
H      3.86031   -0.73095   -2.70802
H      5.28873   -1.92667    1.89212
H      2.70179    0.26417   -0.74636
H      8.19390    0.02492    2.49385
H      8.41599    1.60483    3.24800
H      7.46987    0.34571    4.08617
H      2.33774    2.57864    2.51268
H      3.77748    2.98078    3.48662
H      3.35579   -0.75226    2.76023
H      4.25553    1.77897    1.32824
H      5.25348    0.39683    3.74458
H      2.17864    1.97516    4.82369
H      1.47574    0.36053    2.45576
