34

C     -0.56043   -3.44490   -0.86933
C     -1.88770   -3.37535   -0.35631
C      0.05220   -2.32778   -1.36816
C     -2.52664   -2.16821   -0.37846
C     -0.60489   -1.03825   -1.39477
C     -3.11724    0.56436    0.58365
C     -2.51246    1.19403    2.86232
C     -0.75812    1.22416    1.17225
C     -1.70995    0.15792    3.65136
C      0.02542    0.18699    1.97760
C      0.50543   -0.63248    4.19645
C     -2.67505    0.22556   -0.84628
N     -1.92181   -1.04034   -0.86964
N     -2.19134    1.08290    1.43753
N     -0.27469    0.31162    3.40514
O     -0.09554    0.01082   -1.81480
O     -4.28429    0.32434    0.91511
H     -0.03091   -4.39487   -0.86376
H     -2.39526   -4.24736    0.03932
H      1.06158   -2.34995   -1.76495
H     -3.53510   -2.02821   -0.00229
H     -3.58301    1.03935    2.98878
H     -2.24912    2.20249    3.20094
H     -0.45388    2.22805    1.49104
H     -0.53473    1.12480    0.11217
H     -1.89920    0.29383    4.72185
H     -2.06495   -0.85418    3.37452
H     -0.21437   -0.82482    1.59638
H      1.09723    0.35142    1.82468
H      0.30005   -0.48026    5.26095
H      1.57333   -0.46005    4.02853
H      0.28399   -1.68822    3.94986
H     -2.04576    0.98244   -1.31096
H     -3.58939    0.11011   -1.43022
