25   

C       -0.2499138266   -5.5679714113   -3.7765378142
C        0.0294365757   -4.7720003613   -2.5897825574
C       -0.4831587166   -4.7866802660   -4.8777707551
C       -0.0365590363   -1.0303607634   -1.8532967037
C        0.2404608229   -2.3720519471   -1.8595235012
C       -0.0001617853   -3.4173698093   -2.8393193816
C        0.4318880064   -0.5485691455   -0.5667855023
C       -2.2089028778   -0.3178804190   -2.9185541930
C        0.3240060227    0.8439758829   -0.0187593607
C       -0.6898669787   -0.1639059268   -2.9124961095
N        0.9350615796   -1.5386281758    0.1218701504
N        0.8188893528   -2.6537362351   -0.6506856914
O       -2.7625985906   -0.5448936993   -3.9819060955
O       -2.8730178540   -0.1657294078   -1.7450311347
S       -0.3707744533   -3.0698988982   -4.5109459257
H       -0.2739480302   -6.6524142036   -3.7879863269
H        0.2255670606   -5.2140189146   -1.6207298069
H       -0.7138332325   -5.1694627880   -5.8653119490
H       -0.5611863709    1.3465645533   -0.4165420286
H        0.2504675170    0.8116429666    1.0721063245
H        1.2141445799    1.4163581218   -0.2925114787
H       -0.2848538778   -0.3952632690   -3.8996338534
H       -0.4584648957    0.8872043701   -2.7266790200
H        1.1459890570   -3.5775536115   -0.3806295875
H       -3.8126641154   -0.3149749664   -1.9371361601
25   

C       -0.2735296550   -5.4345995808   -3.9999799989
C       -0.1258036607   -4.6764205159   -2.7657841442
C       -0.1224365540   -4.6450079501   -5.1103794607
C        0.0505171538   -1.0059027175   -1.9046354277
C        0.3398292724   -2.3406023283   -1.9612229066
C        0.1325320198   -3.3438956784   -2.9927386050
C        0.4834261362   -0.5776931018   -0.5871858927
C       -2.1214707567   -0.2702899890   -2.8987640151
C        0.3635052178    0.7920314420    0.0131760178
C       -0.6045739917   -0.1179452323   -2.9410104367
N        0.9644594982   -1.5976249075    0.0747567703
N        0.8747282051   -2.6797696321   -0.7478975860
O       -2.6653685400   -0.9479190601   -3.7551920501
O       -2.7969140728    0.4068897750   -1.9367480289
S        0.2027502305   -2.9659761450   -4.6950898536
H       -0.4839180983   -6.4980561840   -4.0372374198
H       -0.2263591142   -5.1189900842   -1.7819612780
H       -0.1975810511   -5.0008545619   -6.1314100665
H       -0.4856591880    1.3295828529   -0.4157986063
H        0.2224250952    0.7144677277    1.0950339611
H        1.2784813142    1.3582160856   -0.1794824389
H       -0.2356548545   -0.3469971436   -3.9422764552
H       -0.3543654102    0.9282368003   -2.7492626333
H        1.2015128012   -3.6144204752   -0.5152192574
H       -3.7351757060    0.1846817798   -2.0508959224
25   

C       -0.3254789732   -5.3503841305   -4.0061600586
C       -0.2667370424   -4.5769887297   -2.7736944280
C        0.1048549362   -4.6273905062   -5.0897308951
C        0.0758595894   -0.9727686212   -1.8956401578
C        0.3992661791   -2.2969924972   -1.9443949881
C        0.2026457551   -3.3020727775   -2.9789424208
C        0.5056895118   -0.5256205922   -0.5832822872
C       -2.1423073670   -0.2456179586   -2.7724354248
C        0.4021516519    0.8546721035   -0.0045406523
C       -0.6307886785   -0.1371424774   -2.9406190268
N        1.0329868257   -1.5264704415    0.0744175347
N        0.9749828727   -2.6141193461   -0.7450194134
O       -2.7609330186   -0.9900998447   -3.5151946599
O       -2.7308907580    0.5360970005   -1.8329780796
S        0.5926513949   -2.9929134980   -4.6525641157
H       -0.6738737599   -6.3761111952   -4.0618127749
H       -0.5726617579   -4.9610777904   -1.8074240715
H        0.1396297099   -5.0066541296   -6.1045022957
H       -0.5070209312    0.9288305723    0.5981773641
H        1.2631567760    1.0544407733    0.6395944175
H        0.3649379789    1.6092429496   -0.7929909388
H       -0.3510356056   -0.4534859539   -3.9472079345
H       -0.3416315183    0.9118115942   -2.8464884351
H        1.3374877691   -3.5373313517   -0.5178404663
H       -3.6790036328    0.3278201457   -1.8571434991
25   

C       -0.3858651978   -5.3236172219   -4.0424200638
C       -0.4129272698   -4.5370758631   -2.8168632634
C        0.2888606542   -4.6841917339   -5.0525031496
C        0.0360089347   -1.0257202209   -1.8702991055
C        0.4144036417   -2.3321734013   -1.9144152642
C        0.2384271745   -3.3374744119   -2.9568747610
C        0.4891246785   -0.5436771253   -0.5793165206
C       -2.2205307369   -0.3062154581   -2.6439785207
C        0.3471874822    0.8408909211   -0.0203285062
C       -0.7222601915   -0.2470686757   -2.9210060063
N        1.0822558123   -1.5131574057    0.0707129396
N        1.0454399433   -2.6131347011   -0.7350036433
O       -2.8909910604   -1.1376920221   -3.2338321764
O       -2.7416736718    0.6061513898   -1.7863419333
S        0.9110374363   -3.1131745276   -4.5547314065
H       -0.8498332260   -6.2986358149   -4.1457239685
H       -0.9009802823   -4.8545464653   -1.9023505983
H        0.4246329523   -5.0886151764   -6.0489235700
H       -0.5134119166    0.8752527162    0.6529618533
H        1.2430839082    1.1067127702    0.5477862731
H        0.1996313083    1.5718813625   -0.8182378461
H       -0.5218826529   -0.6495710828   -3.9168111027
H       -0.4008390862    0.7971265024   -2.9230040558
H        1.4504644366   -3.5195630137   -0.5109803774
H       -3.6909235023    0.4114024270   -1.7225615896
25   

C       -1.1546313641   -5.0808480540   -4.3759670094
C       -1.3391119599   -4.2685161929   -3.1810620517
C        0.0927370049   -4.9168375767   -4.9263683465
C       -0.0817659073   -1.2525691633   -1.7344738038
C       -0.0727358126   -2.6112370407   -1.7546113880
C       -0.2230728286   -3.5303678158   -2.8823393920
C        0.1189422935   -0.8923139933   -0.3445386630
C       -1.7423930746    0.0915694495   -3.0123018191
C        0.2154439980    0.4884548366    0.2325422084
C       -0.2789668114   -0.3244755851   -2.9097902789
N        0.2284549399   -1.9773142561    0.3805335015
N        0.1138398266   -3.0380588155   -0.4703214631
O       -2.4985864544   -0.5924071763   -3.6828158181
O       -2.1218773194    1.2303771491   -2.3812227282
S        1.0835100374   -3.7768030735   -4.0191036225
H       -1.9178504226   -5.7334681086   -4.7860487391
H       -2.2548653827   -4.2339986077   -2.6014233106
H        0.4370619943   -5.4228194524   -5.8209463098
H       -0.7481757051    0.7713925279    0.6642795953
H        0.9698196214    0.5091001746    1.0240831489
H        0.4839303907    1.2152121626   -0.5374177699
H        0.0232541736   -0.8166516924   -3.8382096559
H        0.3420001336    0.5673623924   -2.7948089313
H        0.1725353381   -4.0181014703   -0.2016290289
H       -3.0747119645    1.3282394548   -2.5415249919
25   

C       -1.1347716264   -4.9024391987   -4.4572667185
C       -1.3159247645   -4.0383607660   -3.2988270277
C        0.1877882989   -5.0364190208   -4.8024215447
C       -0.0429717759   -1.2804542535   -1.7033760750
C        0.0409160556   -2.6362598419   -1.6980115104
C       -0.1225733426   -3.5723850782   -2.8116490179
C        0.1597712757   -0.8805740727   -0.3253341470
C       -1.8002525067   -0.0157504198   -2.9349011533
C        0.1934313898    0.5166921671    0.2177780897
C       -0.3226827921   -0.3921734892   -2.8922012717
N        0.3309632532   -1.9430219160    0.4205732186
N        0.2551344671   -3.0261930215   -0.4066000802
O       -2.5988974128   -0.8303871143   -3.3696282938
O       -2.1503487090    1.2219132090   -2.5056421229
S        1.2566299066   -4.1259307267   -3.7376274757
H       -1.9529661765   -5.3750252098   -4.9899768403
H       -2.2798783988   -3.7653157245   -2.8824607820
H        0.5438127615   -5.6290650776   -5.6371939734
H       -0.7783169934    0.7620435204    0.6542459438
H        0.9542400422    0.5937887771    0.9995961345
H        0.4172891378    1.2364869769   -0.5728599584
H       -0.0550244665   -0.9046947383   -3.8203899131
H        0.2820487665    0.5163538638   -2.8331272504
H        0.3465293110   -3.9975302294   -0.1161224501
H       -3.1164745552    1.2783601752   -2.5877301312
25   

C       -1.1369219663   -4.8432732627   -4.5318072100
C       -1.3010923888   -3.9009265796   -3.4335864992
C        0.1713102712   -5.2272263587   -4.6948112098
C       -0.0551323273   -1.3161139125   -1.7352776306
C        0.0752670196   -2.6694887443   -1.7163071596
C       -0.1133948575   -3.6243547523   -2.8065492069
C        0.1842208927   -0.8910011395   -0.3704454936
C       -1.8696336134   -0.0475055571   -2.8935456269
C        0.1925860954    0.5140010790    0.1534486343
C       -0.3967763006   -0.4446358036   -2.9216044675
N        0.4175930952   -1.9364047372    0.3821811938
N        0.3474586871   -3.0328222863   -0.4275135627
O       -2.6971046568   -0.8434641878   -3.3080963807
O       -2.1837452215    1.1896004969   -2.4362729556
S        1.2461820053   -4.4653622591   -3.5249730045
H       -1.9550559994   -5.1915447554   -5.1530794811
H       -2.2467029621   -3.4487331117   -3.1531585517
H        0.5145299671   -5.9171429761   -5.4570959348
H       -0.7730173076    0.7371569980    0.6147818653
H        0.9730100965    0.6240787444    0.9116064092
H        0.3721776162    1.2289032562   -0.6528187053
H       -0.1846581259   -0.9743461100   -3.8545089229
H        0.2204930190    0.4573825296   -2.9117102747
H        0.4750806386   -3.9968302020   -0.1263994930
H       -3.1514143048    1.2617467563   -2.4800244370
25   

C       -1.1293269203   -4.8070102353   -4.5973728663
C       -1.2839467328   -3.7900299605   -3.5665460066
C        0.1197927000   -5.3757907283   -4.5818935835
C       -0.1154193289   -1.3224621650   -1.7428911331
C        0.0481214302   -2.6742984023   -1.7347131845
C       -0.1481538487   -3.6357111447   -2.8124791643
C        0.1731842983   -0.8961771632   -0.3872243398
C       -1.9702457397   -0.0224816176   -2.8169512942
C        0.1756837889    0.5064819813    0.1433835331
C       -0.5056766243   -0.4417773548   -2.9087481377
N        0.4670136309   -1.9370177256    0.3498041546
N        0.3895953636   -3.0320217950   -0.4603460692
O       -2.8196530520   -0.7649425026   -3.2823490302
O       -2.2522773166    1.1813331713   -2.2611418808
S        1.1479569273   -4.7021112598   -3.3202999035
H       -1.9119216337   -5.0765954200   -5.2984800223
H       -2.1901650662   -3.2145329341   -3.4145688058
H        0.4466901667   -6.1499476319   -5.2665310754
H       -0.7770820717    0.7109113132    0.6388179357
H        0.9800244947    0.6269354764    0.8745018906
H        0.3150574691    1.2281530053   -0.6647982360
H       -0.3384104472   -0.9670950004   -3.8530969558
H        0.1217159172    0.4532018886   -2.9223834334
H        0.5562296556   -3.9929595646   -0.1686092105
H       -3.2189621210    1.2745966220   -2.2829411406
25   

C       -1.0824353255   -4.7433637247   -4.6940817755
C       -1.2127447216   -3.6689668631   -3.7199558153
C        0.0658768994   -5.4715225311   -4.5122961441
C       -0.1442685751   -1.3210335404   -1.7427938479
C        0.0384130219   -2.6726883389   -1.7614108733
C       -0.1577160718   -3.6249228291   -2.8423469620
C        0.1971469341   -0.9096037668   -0.3938836267
C       -2.0350314085   -0.0053097407   -2.7470175159
C        0.2069906379    0.4842185857    0.1601738811
C       -0.5698625353   -0.4138379554   -2.8770859952
N        0.5429035853   -1.9547363168    0.3129920711
N        0.4490549507   -3.0383987112   -0.5094492126
O       -2.8792705507   -0.6727267963   -3.3221011907
O       -2.3215996049    1.1170893351   -2.0432507453
S        1.0243376134   -4.8811960863   -3.1584293583
H       -1.8109817677   -4.9405112362   -5.4732398726
H       -2.0534127224   -2.9866774804   -3.6897113879
H        0.3588002539   -6.3142020440   -5.1279496017
H       -0.7321540863    0.6743289296    0.6863227712
H        1.0317330827    0.5980021568    0.8693280682
H        0.3185159153    1.2206208594   -0.6388735880
H       -0.4125042773   -0.9089939905   -3.8390655974
H        0.0484478819    0.4874378477   -2.8790709796
H        0.6501975822   -3.9992883926   -0.2401858893
H       -3.2876847937    1.2163388092   -2.0654667337
25   

C       -0.9858373860   -4.6797167641   -4.7584518438
C       -1.0899156393   -3.5493986359   -3.8467673293
C        0.0194753958   -5.5410889642   -4.4028910326
C       -0.1849529811   -1.2879275344   -1.7282199037
C        0.0185843682   -2.6392502899   -1.7586590364
C       -0.1543661962   -3.5911959605   -2.8407439155
C        0.1823197357   -0.8767423953   -0.3850209479
C       -2.1105265483   -0.0155244078   -2.7321901306
C        0.1796715012    0.5120770976    0.1827656875
C       -0.6283194857   -0.3645113835   -2.8439649974
N        0.5711242997   -1.9168054485    0.3053448299
N        0.4794530155   -2.9966102015   -0.5210043851
O       -2.9035756802   -0.6074243770   -3.4460377985
O       -2.4663316968    0.9826505379   -1.8871428269
S        0.8702058162   -5.0100136487   -2.9568834712
H       -1.6329471053   -4.8212753392   -5.6175107026
H       -1.8393042583   -2.7757233496   -3.9499197112
H        0.2687352022   -6.4465945550   -4.9440846223
H       -0.7522987834    0.6808577128    0.7285609041
H        1.0157827315    0.6329865767    0.8773000998
H        0.2634509626    1.2593281937   -0.6092998410
H       -0.4262070978   -0.8178954807   -3.8177195767
H       -0.0494751511    0.5615661798   -2.8064074437
H        0.7151035458   -3.9528006116   -0.2633026713
H       -3.4328576470    1.0605904135   -1.9447003969
25   

C       -0.8518243760   -4.6551103229   -4.8097118674
C       -0.9029304997   -3.4790581179   -3.9534071898
C       -0.0361340888   -5.6305766563   -4.3013464440
C       -0.1855529040   -1.2900571437   -1.7077340004
C        0.0450753445   -2.6406706168   -1.7512960624
C       -0.1159560001   -3.5971241929   -2.8306256015
C        0.2465016743   -0.8688626998   -0.3861816891
C       -2.1813433113   -0.1593068837   -2.7709874521
C        0.2169933943    0.5126410026    0.1992974793
C       -0.6656112205   -0.3498444678   -2.7956403254
N        0.6820937182   -1.8997367451    0.2871863838
N        0.5616383153   -2.9819931210   -0.5301132305
O       -2.8378838388   -0.6075556239   -3.6967111276
O       -2.7183004329    0.5533128642   -1.7507460135
S        0.6943266646   -5.1524908094   -2.7749291295
H       -1.4025605153   -4.7463038489   -5.7398676426
H       -1.5212567990   -2.6239271202   -4.1854110133
H        0.1428166843   -6.5881590507   -4.7767245318
H       -0.4892400807    1.1518552602   -0.3344476108
H       -0.0747083491    0.4634134845    1.2521007006
H        1.2140153672    0.9565925242    0.1374342172
H       -0.3472850839   -0.7107352328   -3.7767846227
H       -0.1974884424    0.6288458514   -2.6633119346
H        0.8255859410   -3.9328205150   -0.2801981255
H       -3.6782017128    0.5674870498   -1.8973985336
25   

C       -0.7405919504   -4.6501549752   -4.9983387886
C       -0.6692323770   -3.4512063053   -4.1759598293
C       -0.2113162192   -5.7433743420   -4.3676984714
C       -0.0986593302   -1.3712734806   -1.7892232396
C        0.1230669007   -2.7236446444   -1.8674474981
C       -0.0799948880   -3.6698881101   -2.9498637425
C        0.3612842799   -0.9787577070   -0.4687470495
C       -2.1433335895   -0.3524427937   -2.8614514012
C        0.3147746257    0.3865060981    0.1526650034
C       -0.6178072210   -0.3947837044   -2.8257474483
N        0.8186937271   -2.0213790498    0.1694354755
N        0.6795215568   -3.0844241560   -0.6690756187
O       -2.7109485569   -0.7331824722   -3.8724351467
O       -2.7907771825    0.1606907842   -1.7866034704
S        0.3894535653   -5.3516370482   -2.7632071763
H       -1.1710753716   -4.6716748473   -5.9938377979
H       -1.0664501453   -2.5068570932   -4.5172903829
H       -0.1664675889   -6.7370930050   -4.7983606015
H       -0.4939242122    0.9823183200   -0.2772613739
H        0.1546299070    0.2998405097    1.2311151712
H        1.2655362128    0.8986054761   -0.0174772258
H       -0.2176483047   -0.6366992421   -3.8126028679
H       -0.2577050848    0.6110483488   -2.5968251603
H        0.9534080929   -4.0391766426   -0.4463501662
H       -3.7405420076    0.0998216941   -1.9793383828
25   

C       -0.7858499054   -4.5216111362   -4.9221771562
C       -0.5018532780   -3.3105665902   -4.1661292791
C       -0.6784697030   -5.6496703982   -4.1533358538
C       -0.0524776632   -1.2436592179   -1.7457938498
C        0.1362986170   -2.5998858606   -1.8109688338
C       -0.1963372879   -3.5602435353   -2.8467708235
C        0.4624306924   -0.8450715422   -0.4481881819
C       -2.1557278418   -0.5746076789   -2.9885856523
C        0.4544956980    0.5273763411    0.1582067816
C       -0.6697953281   -0.3036195699   -2.7628927142
N        0.9166363011   -1.8908004630    0.1889243608
N        0.7181172877   -2.9630919081   -0.6264854747
O       -2.5521624537   -0.6617214931   -4.1397655953
O       -2.9637010576   -0.6900509008   -1.9057290386
S       -0.2327103272   -5.2787351269   -2.4934267885
H       -1.0534848123   -4.5254798296   -5.9734528951
H       -0.5299822534   -2.3303204612   -4.6215390388
H       -0.8488251103   -6.6566290617   -4.5166365389
H       -0.4426306836    1.0745941113   -0.1418301383
H        0.4735897711    0.4547853246    1.2495729723
H        1.3383375863    1.0797506703   -0.1716548714
H       -0.1267977298   -0.3734320929   -3.7081311620
H       -0.5680718637    0.7305935494   -2.4278597043
H        0.9648347058   -3.9232909351   -0.3957850750
H       -3.8527703825   -0.8888654759   -2.2406429334
25   

C       -0.7698268951   -4.4294355590   -4.9231440983
C       -0.3363836445   -3.2589208962   -4.1739792604
C       -0.9695221215   -5.5178026787   -4.1136260585
C       -0.0270902212   -1.2086544148   -1.7177523116
C        0.1613939949   -2.5610809937   -1.7944851607
C       -0.2312951121   -3.5034631077   -2.8252391934
C        0.5338320628   -0.8192017956   -0.4368939485
C       -2.1499033981   -0.7622533816   -3.0488272856
C        0.6098588198    0.5601340843    0.1481522156
C       -0.7365680265   -0.2963128309   -2.7006819912
N        1.0231197899   -1.8682727495    0.1709658816
N        0.8019533340   -2.9364345373   -0.6457055590
O       -2.4885373093   -0.7184881250   -4.2208259046
O       -2.9578350026   -1.1980214145   -2.0505552599
S       -0.6409137237   -5.1594570859   -2.4221238179
H       -0.9199986973   -4.4347848421   -5.9974882940
H       -0.1216221775   -2.3044887391   -4.6389848360
H       -1.2952513337   -6.4898546532   -4.4657325294
H       -0.2901440168    0.7562115056    0.7372927038
H        1.4805263827    0.6399883014    0.8054585595
H        0.6910794500    1.3118951112   -0.6403597592
H       -0.1419072193   -0.2155175859   -3.6141227632
H       -0.8205828506    0.7086581873   -2.2821105231
H        1.0637720024   -3.8974806224   -0.4361933022
H       -3.7848342949   -1.4871669061   -2.4679596408
25   

C       -0.6961128489   -4.4239665443   -4.9417097951
C       -0.1757458312   -3.2844833914   -4.1997073721
C       -1.1207169040   -5.4316356864   -4.1128652934
C       -0.0597534117   -1.1822061914   -1.7456107450
C        0.1718113997   -2.5252711840   -1.8187964623
C       -0.2252845715   -3.4783871825   -2.8413467857
C        0.5407027301   -0.7647798854   -0.4923102084
C       -2.1946642775   -0.8962314553   -3.1115268798
C        0.5885675399    0.6207449832    0.0802961299
C       -0.8355082886   -0.3161682919   -2.7202964696
N        1.1003571462   -1.7910773834    0.0957202796
N        0.8860729557   -2.8729405894   -0.7059712785
O       -2.5115784621   -0.8511470415   -4.2895702233
O       -2.9812210639   -1.4291700804   -2.1437632559
S       -0.9040541626   -5.0346939348   -2.4109173784
H       -0.7476455833   -4.4649335079   -6.0244901274
H        0.1974098040   -2.3803769557   -4.6669463213
H       -1.5460889166   -6.3672157837   -4.4573784259
H       -0.2685985090    0.7714808563    0.7421169432
H        1.5049095692    0.7524516440    0.6628608160
H        0.5619618963    1.3699589667   -0.7143464211
H       -0.2350606417   -0.1666733240   -3.6215224021
H       -1.0149115542    0.6672975168   -2.2806655985
H        1.1973902398   -3.8216957259   -0.5083906027
H       -3.7663358191   -1.7845975137   -2.5897923388
25   

C       -0.6382146207   -4.4344318772   -4.9179278039
C       -0.0375504991   -3.3464180106   -4.1591399800
C       -1.2819008774   -5.3371058233   -4.1085773034
C       -0.0927698968   -1.1904263383   -1.7001568030
C        0.1652545316   -2.5261101571   -1.7853742145
C       -0.2430742693   -3.4791156316   -2.8092347801
C        0.5563974165   -0.7612823401   -0.4758033908
C       -2.2414910980   -0.9906501670   -3.0640517045
C        0.5971976447    0.6245738487    0.0961463604
C       -0.9189330893   -0.3451245894   -2.6510454921
N        1.1744874909   -1.7738986560    0.0778154746
N        0.9510404605   -2.8592106317   -0.7174584571
O       -2.5389848822   -0.9674159087   -4.2477888775
O       -3.0224056914   -1.5490413490   -2.1062694200
S       -1.1802111809   -4.9024618420   -2.4046294485
H       -0.5900455655   -4.5138819794   -5.9986912921
H        0.4933875538   -2.5137735302   -4.6066615650
H       -1.8007788613   -6.2180091992   -4.4686809035
H       -0.2190516955    0.7475108863    0.8130728836
H        1.5450831344    0.7851508722    0.6178090835
H        0.4943846419    1.3727430702   -0.6932953166
H       -0.3274371560   -0.1391584803   -3.5472693028
H       -1.1536103653    0.6139777942   -2.1841115514
H        1.3008492099   -3.7991309687   -0.5432944289
H       -3.7803548558   -1.9445287197   -2.5653536395
25   

C        0.3499151871   -4.9160955541   -4.5076250744
C        0.7876900425   -3.9186015093   -3.5408683784
C       -0.9396584052   -5.3271259571   -4.2777146358
C       -0.0712084117   -1.2857797652   -1.6169325579
C       -0.0743647676   -2.6433029655   -1.5445381946
C       -0.1865183346   -3.6273783162   -2.6204938810
C        0.0799219534   -0.8326858832   -0.2478147457
C       -1.6731518374   -0.0324779554   -3.0576207742
C        0.1619853022    0.5833127537    0.2391835282
C       -0.2162964837   -0.4378019545   -2.8592025670
N        0.1571939812   -1.8663367469    0.5522320112
N        0.0607877156   -2.9818403793   -0.2278357444
O       -2.3650853432   -0.6944435367   -3.8136341171
O       -2.1125726748    1.0809118988   -2.4197860588
S       -1.6624047406   -4.5246226429   -2.8858655048
H        0.9685107691   -5.2850283051   -5.3186474913
H        1.7646753516   -3.4486178759   -3.5477073707
H       -1.4658476674   -6.0577260909   -4.8812046804
H       -0.8167784081    0.8974374942    0.6113736213
H        0.8835831408    0.6545381997    1.0578331224
H        0.4649933161    1.2562545519   -0.5659813151
H        0.1287944277   -0.9890767544   -3.7381268851
H        0.3967610122    0.4627548427   -2.7749914006
H        0.0780808020   -3.9415663333    0.1112027295
H       -3.0521930008    1.1739724310   -2.6472500654
25   

C        0.4226491032   -5.0570638044   -4.4137419205
C        0.8776451492   -4.0991778647   -3.4153099222
C       -0.9374465981   -5.2396781199   -4.3718413532
C       -0.0959805559   -1.2652129444   -1.6428162662
C       -0.0346463348   -2.6213253610   -1.5858038933
C       -0.1577080707   -3.6046496031   -2.6641894282
C        0.0889274535   -0.8197931536   -0.2754345494
C       -1.7896197089   -0.0314816650   -2.9977955448
C        0.1314602810    0.5939718997    0.2226684815
C       -0.3188021870   -0.4150483777   -2.8717576779
N        0.2410751404   -1.8572803891    0.5092752359
N        0.1620425807   -2.9684091474   -0.2791674586
O       -2.5098086309   -0.7077771000   -3.7136776678
O       -2.2117600887    1.0801787812   -2.3454797426
S       -1.7084757157   -4.2621263553   -3.1254285048
H        1.0811169236   -5.5629330084   -5.1116620242
H        1.9115895484   -3.8018598398   -3.2807027053
H       -1.4868971350   -5.9036600438   -5.0291866109
H       -0.8449582926    0.8650117439    0.6328933188
H        0.8789847371    0.6875416508    1.0153825771
H        0.3775233524    1.2851163954   -0.5865714638
H       -0.0081432815   -0.9583537635   -3.7686507198
H        0.2839721236    0.4945702910   -2.8137009408
H        0.2252874340   -3.9300759579    0.0486672992
H       -3.1623791887    1.1600264019   -2.5277805758
25   

C        0.4717613112   -5.1374153672   -4.3429536728
C        0.9396000484   -4.2335753919   -3.3010057327
C       -0.8877643179   -5.0634393594   -4.5183140698
C       -0.0547559348   -1.1988588908   -1.6520701828
C        0.0518342948   -2.5536687109   -1.6459483201
C       -0.0855882678   -3.5146572122   -2.7404103529
C        0.1594384551   -0.7970641643   -0.2753539477
C       -1.7950548577    0.1413647554   -2.8486581666
C        0.1830780546    0.5995778704    0.2699148581
C       -0.3368176218   -0.3073042229   -2.8391615947
N        0.3633383888   -1.8564027057    0.4674018337
N        0.2913629935   -2.9412066502   -0.3573677540
O       -2.6154037795   -0.5516765847   -3.4274113553
O       -2.0984818596    1.3216000874   -2.2537595533
S       -1.6426438955   -3.8998472989   -3.4323913240
H        1.1217986352   -5.7918808532   -4.9137081155
H        1.9765929869   -4.1360335625   -2.9998166464
H       -1.4453321172   -5.6474072125   -5.2415041257
H       -0.7840916501    0.8299817657    0.7244400876
H        0.9569041797    0.6867354224    1.0377489841
H        0.3813565261    1.3237554529   -0.5236036166
H       -0.1172673873   -0.8372810412   -3.7702545396
H        0.3088716343    0.5738818599   -2.8045071826
H        0.3790803814   -3.9119328913   -0.0639153760
H       -3.0579083217    1.4376662036   -2.3514042457
25   

C        0.4899366933   -5.2936529520   -4.2585933025
C        0.9230775276   -4.4026982311   -3.1909690300
C       -0.8104826664   -5.0602618107   -4.6299418597
C       -0.1345314094   -1.2037106708   -1.7345992685
C        0.0481074229   -2.5516228068   -1.7314263656
C       -0.0657976036   -3.5310813951   -2.8070151948
C        0.1138621067   -0.7865365187   -0.3678779929
C       -1.9648380542    0.0995433585   -2.8447124697
C        0.0897703680    0.6115699318    0.1738320565
C       -0.4994818369   -0.3221798717   -2.9073421956
N        0.4070973940   -1.8300280392    0.3670562986
N        0.3619426056   -2.9196159270   -0.4526763577
O       -2.8030002269   -0.6219201585   -3.3594395929
O       -2.2575511596    1.2884684209   -2.2621706894
S       -1.5489598600   -3.7569852149   -3.7037401660
H        1.1211301490   -6.0532029226   -4.7073160891
H        1.9132162385   -4.4224569813   -2.7497813641
H       -1.3348298939   -5.6075696579   -5.4048188301
H       -0.8765523051    0.8027507085    0.6478182402
H        0.8753583844    0.7341605990    0.9247330405
H        0.2410590042    1.3407012527   -0.6255185281
H       -0.3156935301   -0.8483784029   -3.8480855596
H        0.1294739843    0.5717792407   -2.9076841924
H        0.5087948341   -3.8830593717   -0.1593670865
H       -3.2228701377    1.3852965999   -2.3107163391
25   

C        0.4401610662   -5.3703929704   -4.1716434057
C        0.8400714218   -4.5212483844   -3.0581517531
C       -0.7519534100   -4.9726671835   -4.7215847946
C       -0.1605196828   -1.1852068108   -1.7371020653
C        0.0471562907   -2.5318163785   -1.7475490235
C       -0.0642518194   -3.5151654338   -2.8149111295
C        0.1361828494   -0.7681058479   -0.3794276998
C       -2.0398620665    0.1070754942   -2.7824445590
C        0.1095053877    0.6265870238    0.1717349986
C       -0.5692624775   -0.2885688601   -2.8848340407
N        0.4830318703   -1.8068650818    0.3376190948
N        0.4271625913   -2.8934135373   -0.4843544963
O       -2.8769123077   -0.6128006906   -3.3010319663
O       -2.3393202138    1.2750913341   -2.1623518929
S       -1.4246197594   -3.5612485323   -3.9121438484
H        1.0174253266   -6.2179338064   -4.5253865771
H        1.7533126161   -4.6638823835   -2.4919532481
H       -1.2349354279   -5.4619367335   -5.5595933601
H       -0.8430427426    0.8004382773    0.6790352052
H        0.9180998742    0.7567914326    0.8965157354
H        0.2231716670    1.3633145288   -0.6267772563
H       -0.3928319445   -0.7881827450   -3.8408424004
H        0.0426288272    0.6170775755   -2.8809593547
H        0.6046480215   -3.8537159184   -0.1986323071
H       -3.3067483891    1.3579617684   -2.1902624980
25   

C        0.3620534880   -5.5149225721   -4.0382180290
C        0.7244433037   -4.6951149597   -2.8906595427
C       -0.6834167300   -4.9791979768   -4.7448738435
C       -0.1632738499   -1.2265431703   -1.7115549337
C        0.0586208840   -2.5741769656   -1.7235764376
C       -0.0622613307   -3.5717850708   -2.7735952807
C        0.1926593877   -0.7960828976   -0.3712380920
C       -2.1069483326   -0.0105200714   -2.7357224721
C        0.1741310232    0.5992857353    0.1800227480
C       -0.6163888471   -0.3222650209   -2.8382793075
N        0.5911051364   -1.8236530460    0.3334552187
N        0.5128497887   -2.9150700743   -0.4784448804
O       -2.8870330236   -0.6486239598   -3.4228942523
O       -2.4851542340    1.0098361696   -1.9266010413
S       -1.2585428709   -3.4707282767   -4.0443674109
H        0.8618364868   -6.4400819038   -4.3046894824
H        1.5361619121   -4.9435232921   -2.2172465239
H       -1.1149165538   -5.4228191349   -5.6347766009
H       -0.7594658269    0.7638492150    0.7242895544
H        1.0091892806    0.7380945208    0.8725075079
H        0.2489807034    1.3380715989   -0.6208143272
H       -0.3992928411   -0.7767809133   -3.8077403203
H       -0.0599964082    0.6174715666   -2.8042112974
H        0.7227509952   -3.8685124055   -0.1930668524
H       -3.4534356672    1.0592314781   -1.9840594570
25   

C        0.2575657328   -5.5536085236   -3.9490870326
C        0.5666012926   -4.7579547183   -2.7694855597
C       -0.5765050217   -4.8930560967   -4.8123551343
C       -0.1605627368   -1.1632976671   -1.7373757893
C        0.0805820470   -2.5119024531   -1.7486288515
C       -0.0484109165   -3.5247645405   -2.7823181867
C        0.2619613098   -0.7116884626   -0.4227126537
C       -2.1746153892   -0.0874117605   -2.8057797842
C        0.2271059049    0.6825161910    0.1315292390
C       -0.6566006606   -0.2508457719   -2.8414724660
N        0.6945107912   -1.7264450652    0.2777760972
N        0.5803054097   -2.8282187828   -0.5133892106
O       -2.8422529283   -0.6359752211   -3.6667267191
O       -2.7024792288    0.7201298157   -1.8527930434
S       -1.0115589043   -3.2936300283   -4.2235161091
H        0.6444395466   -6.5514353556   -4.1262332388
H        1.2243207943   -5.1082544514   -1.9835865648
H       -0.9337294949   -5.2972253793   -5.7525417438
H       -0.4806896007    1.3071441360   -0.4171948594
H       -0.0653856726    0.6562287479    1.1849277295
H        1.2226559445    1.1284105854    0.0603870270
H       -0.3435205805   -0.6234743905   -3.8192654842
H       -0.2025717818    0.7370682272   -2.7310678183
H        0.8141037704   -3.7737903190   -0.2221861144
H       -3.6649256331    0.7027655965   -1.9803574170
25   

C       -0.0644122482   -5.5859521183   -3.8260089325
C        0.2707844474   -4.7887748770   -2.6545016995
C       -0.6403865575   -4.8327535721   -4.8149570300
C       -0.1090520510   -1.0690579219   -1.8210960215
C        0.1480848970   -2.4163602019   -1.8128005747
C       -0.0644025025   -3.4598964839   -2.8006841530
C        0.3580093439   -0.5802739312   -0.5366436790
C       -2.2255517707   -0.2020137375   -2.9030836817
C        0.2747519199    0.8206661868   -0.0056614017
C       -0.6982546264   -0.1857667793   -2.9047192187
N        0.8475438220   -1.5685264634    0.1631606652
N        0.7210570988   -2.6890629221   -0.5991937953
O       -2.8012302718   -0.3413166804   -3.9698674820
O       -2.8697320712   -0.0367573560   -1.7203498367
S       -0.7934678379   -3.1411661547   -4.3581899463
H        0.1201351796   -6.6518123030   -3.9074891195
H        0.7351368253   -5.2141211978   -1.7737116486
H       -0.9685148682   -5.2218716188   -5.7720005984
H       -0.5738201504    1.3507253662   -0.4451443748
H        0.1541591158    0.8010990448    1.0812408852
H        1.1957390091    1.3587968734   -0.2447855643
H       -0.3204428743   -0.4826130980   -3.8853173050
H       -0.3733970239    0.8463718431   -2.7553900998
H        1.0138463860   -3.6171990091   -0.3064942712
H       -3.8196084879   -0.0926725784   -1.9120032073
