59

C      5.92298    1.64459   -1.92716
C      6.98226    1.39510   -1.03551
C      4.66254    1.08231   -1.71069
C      3.07179   -2.74388   -3.06267
C      1.14598   -3.95899   -2.05492
C      1.97573   -0.56447   -0.45653
C      6.80521    0.58388    0.09006
C      4.39648   -2.35624   -3.02402
C      0.62083   -4.72022   -1.03465
C      1.10464   -1.32659    0.31069
C      4.69592   -3.55635   -0.92891
C      2.77769   -4.74732    0.08812
C      2.86616   -1.80865    1.94329
C      2.50649   -3.55116   -2.04499
C      4.45785    0.28042   -0.58224
C      3.30610   -0.41480   -0.04451
C      3.34168   -3.96183   -0.95560
C      5.53818    0.04213    0.31105
C      3.72525   -1.04290    1.15259
C      5.21799   -2.77184   -1.94176
C      1.44794   -5.10386    0.05807
C      1.54962   -1.95742    1.49187
C      6.16888   -2.45426    2.85453
C      7.14992   -1.71517   -2.89034
C      5.77392   -0.99438    2.58987
C      0.03968   -4.84106    3.10747
C     -0.25850   -5.43168    1.72688
C      1.07726   -3.72723    3.05430
N      5.08155   -0.77111    1.35618
O      5.85829   -3.39801    2.17526
O      6.89850   -2.62968    3.99596
O      6.53898   -2.42614   -1.81917
O      0.94912   -5.88208    1.08825
O      0.61821   -2.73356    2.12903
H      6.09169    2.27619   -2.79522
H      7.95983    1.82879   -1.22848
H      3.84836    1.26968   -2.40597
H      2.44290   -2.42199   -3.89010
H      0.51410   -3.66506   -2.89044
H      1.62923   -0.11120   -1.38104
H      7.64335    0.37817    0.75047
H      4.79528   -1.72899   -3.81272
H     -0.41552   -5.04312   -1.06595
H      0.07981   -1.49558   -0.00199
H      5.33216   -3.83319   -0.09581
H      3.39869   -5.05377    0.92471
H      3.21955   -2.31415    2.83309
H      8.19013   -1.57068   -2.59406
H      6.68527   -0.73606   -3.04029
H      7.11505   -2.29381   -3.82275
H      5.15259   -0.66615    3.43739
H      6.67630   -0.37615    2.60836
H     -0.89950   -4.46877    3.53500
H      0.41935   -5.62348    3.77446
H     -0.91588   -6.30164    1.82368
H     -0.76035   -4.68401    1.10899
H      2.03211   -4.13621    2.71449
H      1.22172   -3.27569    4.04485
H      7.06915   -1.77573    4.43047
