29   

C        1.1770930906   -1.0508515680    0.1874095358
C        1.5293546379   -2.1994395628    0.8987410286
C        1.0245609017    0.1629267462    0.8616453807
C        1.7199364904   -2.1336617190    2.2832409846
C        1.2110150939    0.2248996538    2.2479465525
C        1.9803649983   -0.0596842931    6.4065693111
C        2.9325535828   -1.1088317101    6.1672460687
C        1.5451986405   -0.9277389702    2.9875733102
C        1.2015942392    0.0118984549    5.2870464126
C       -0.0428085619    0.8342774760    5.2069153462
C       -2.2136248069    1.5163136786    4.2584495938
C       -1.4032366286   -0.8098350870    3.9061220102
N        2.7369835287   -1.6131508805    4.9767421782
N        1.7321341875   -0.8968843487    4.3879068174
N       -1.1273332996    0.5483087036    4.3670160131
O       -0.1681579353    1.7764317741    5.9949470229
H        1.0317333895   -1.1001154619   -0.8861365541
H        1.6584146167   -3.1429140930    0.3797491858
H        0.7674709415    1.0602395225    0.3096591349
H        1.9978772140   -3.0306940950    2.8262857286
H        1.1080009739    1.1824556696    2.7445941364
H        1.8522814177    0.5039118939    7.3236957901
H        3.6762363541   -1.4537362688    6.8763395127
H       -2.8150017355    1.3167683177    3.3658513087
H       -1.8141382752    2.5318024336    4.1669344107
H       -2.8576029954    1.4648239296    5.1421571714
H       -2.4596295736   -1.0505716133    4.0623791163
H       -0.8278475897   -1.5501399650    4.4701500380
H       -1.1818892330   -0.9115400900    2.8395578424
29   

C        1.1697756250   -1.0166046636    0.1712883273
C        1.5382056816   -2.1625123141    0.8784715774
C        1.0052294179    0.1932010636    0.8492786394
C        1.7317631722   -2.0983240417    2.2627135996
C        1.1952735417    0.2537415057    2.2349765498
C        1.8930079876   -0.1107047957    6.4322839073
C        2.8500256045   -1.1566009339    6.1948255962
C        1.5442628968   -0.8967830534    2.9717798123
C        1.1649125257    0.0005662406    5.2839304068
C       -0.0354678080    0.8745839356    5.1241344206
C       -2.2160997965    1.4955730279    4.1451983465
C       -1.4191630178   -0.8611583453    3.9741250056
N        2.7059892393   -1.6132925006    4.9773883719
N        1.7287160745   -0.8712500517    4.3734629259
N       -1.1454020296    0.5250258097    4.3442698057
O       -0.0809562703    1.9386467130    5.7490483772
H        1.0213730875   -1.0644648423   -0.9018903704
H        1.6767736520   -3.1029225059    0.3564360803
H        0.7363788180    1.0892368413    0.3007960351
H        2.0205710634   -2.9944000610    2.8015711252
H        1.0855034781    1.2110558307    2.7304258352
H        1.7391157968    0.4352085930    7.3558461201
H        3.5624526566   -1.5306911251    6.9210110475
H       -2.8199122976    1.2233918481    3.2736868705
H       -1.8027237419    2.4925544366    3.9602526401
H       -2.8613687105    1.5346288063    5.0284914159
H       -2.4774864079   -1.0901153608    4.1347894965
H       -0.8493204961   -1.5621060788    4.5918562039
H       -1.1837200748   -1.0340223292    2.9196353992
29   

C        1.1504570842   -0.9881276422    0.1837046616
C        1.5204685893   -2.1278752262    0.8996939597
C        1.0009823189    0.2298525647    0.8497705814
C        1.7290943054   -2.0495972611    2.2811505406
C        1.2071442269    0.3048989183    2.2322280631
C        1.8554218694   -0.0955686998    6.4645063792
C        2.8009015671   -1.1542111178    6.2342585709
C        1.5559594249   -0.8394711513    2.9797683646
C        1.1735022961    0.0527941478    5.2934849039
C        0.0269390464    0.9823926843    5.0549213552
C       -2.1660625926    1.5629436107    4.0627598617
C       -1.4252833021   -0.8217752768    4.1190296433
N        2.6940720927   -1.5765454173    5.0001291167
N        1.7509629454   -0.8029417044    4.3808963546
N       -1.1258135882    0.5862680098    4.3657624462
O        0.0913661450    2.1411820182    5.4759504359
H        0.9895638855   -1.0467359785   -0.8871176540
H        1.6480049941   -3.0746776774    0.3865553919
H        0.7319893856    1.1217688387    0.2946360099
H        2.0175551417   -2.9421947421    2.8258216088
H        1.1125682596    1.2713325580    2.7127378891
H        1.6888600474    0.4421338967    7.3903793591
H        3.4812889866   -1.5585966215    6.9747906477
H       -2.7396467221    1.2451583863    3.1863044989
H       -1.7294995877    2.5395783842    3.8294839549
H       -2.8447580456    1.6698468354    4.9146705365
H       -2.4905266953   -1.0138684172    4.2820620659
H       -0.8778861597   -1.4749989306    4.8058546495
H       -1.1758977112   -1.0934296976    3.0887028355
29   

C        1.1787829723   -1.0105965724    0.1568919852
C        1.5427365606   -2.1629372197    0.8552695567
C        1.0577258833    0.2019239911    0.8379310947
C        1.7720709813   -2.1027844584    2.2344296328
C        1.2856678743    0.2592638503    2.2176811905
C        1.8685569793   -0.2999673127    6.4765083778
C        2.8032258595   -1.3632046759    6.2224571545
C        1.6267179136   -0.8982313481    2.9495401513
C        1.2447127771   -0.0707515946    5.2871170736
C        0.1549721515    0.9173344362    5.0037230148
C       -2.0579778313    1.5039696200    4.0402318526
C       -1.3876112111   -0.8944858750    4.2595807965
N        2.7424366638   -1.7092203591    4.9613292333
N        1.8384089579   -0.8837426295    4.3497872294
N       -1.0493507222    0.5176984428    4.4131541479
O        0.3357994361    2.1149169581    5.2399922055
H        1.0010488255   -1.0550186559   -0.9119257458
H        1.6489986793   -3.1057773545    0.3302006950
H        0.7946150659    1.1040790193    0.2966760832
H        2.0542256726   -3.0062672699    2.7641255830
H        1.2167670607    1.2246991537    2.7043951016
H        1.6814104445    0.1940718100    7.4222915350
H        3.4458442554   -1.8230188225    6.9643841322
H       -2.5748794597    1.1855242581    3.1294822403
H       -1.6065048280    2.4789324998    3.8306779918
H       -2.7897983307    1.6190511393    4.8457075306
H       -2.4612387123   -1.0441659589    4.4114596823
H       -0.8725950897   -1.5129937155    5.0015646960
H       -1.1238022874   -1.2439558177    3.2565088288
29   

C        1.2149688519   -1.0186087560    0.1154961373
C        1.5980261928   -2.1601180339    0.8208575479
C        1.0734337147    0.1953680624    0.7894863851
C        1.8255039608   -2.0878047406    2.1997219715
C        1.2999965198    0.2650064231    2.1689210251
C        1.7500151695   -0.3998973881    6.4676777670
C        2.7180441972   -1.4332167999    6.2161237981
C        1.6601768955   -0.8817083927    2.9090535567
C        1.2135677790   -0.1039027503    5.2510641705
C        0.1515225683    0.9037023445    4.9194406818
C       -2.1198388297    1.4481045243    4.0580244791
C       -1.4425663427   -0.9360074981    4.4238671925
N        2.7495668758   -1.7031253786    4.9354108092
N        1.8712832429   -0.8589279695    4.3103314219
N       -1.0982699954    0.4825986554    4.4541162692
O        0.4045305853    2.1100874189    4.9669861610
H        1.0385726001   -1.0721807101   -0.9530936019
H        1.7204553037   -3.1041635893    0.3015671616
H        0.7962691126    1.0901608334    0.2430682892
H        2.1219067847   -2.9844394478    2.7331081561
H        1.2185352023    1.2344890556    2.6446480786
H        1.4959294663    0.0384296282    7.4250399075
H        3.3191595364   -1.9260532251    6.9715128976
H       -2.1969367377    1.4826874393    2.9669203068
H       -1.8937615742    2.4552470443    4.4217705179
H       -3.0909039666    1.1656913558    4.4764760112
H       -2.5232476141   -1.0711344524    4.5320220429
H       -0.9685890020   -1.4780175017    5.2485076668
H       -1.1284419443   -1.3817647058    3.4746583494
29   

C        1.3460129441   -1.0868443677    0.0212432096
C        1.7226149745   -2.2065542552    0.7633248239
C        1.1788595737    0.1415193776    0.6618801539
C        1.9188241262   -2.0975450181    2.1445661800
C        1.3741121657    0.2475082514    2.0439123146
C        1.6162886146   -0.4593313926    6.3881784754
C        2.6213583053   -1.4632525071    6.1704374763
C        1.7291530182   -0.8753637872    2.8213786063
C        1.1899171973   -0.1014393362    5.1446022832
C        0.1405804474    0.9081074520    4.7721946150
C       -2.2037125006    1.4605176911    4.1649970828
C       -1.5456392210   -0.9080626630    4.6736697327
N        2.7618475722   -1.6710837462    4.8858931202
N        1.9169162870   -0.8176668693    4.2259872598
N       -1.1738165939    0.4970073951    4.5411772396
O        0.4462165882    2.0917545157    4.6070035900
H        1.1947102681   -1.1681278520   -1.0494096293
H        1.8647964066   -3.1621067079    0.2708835783
H        0.9073371431    1.0204677198    0.0876408123
H        2.2110990693   -2.9792412147    2.7042694017
H        1.2781045520    1.2292300165    2.4876638187
H        1.2747075999   -0.0738621820    7.3409275433
H        3.1709810193   -1.9796748569    6.9489289011
H       -2.3323821536    1.4661446757    3.0782094387
H       -1.9454970403    2.4722081022    4.4938665419
H       -3.1571679965    1.2028858843    4.6365014754
H       -2.6192035769   -1.0066437700    4.8618300506
H       -1.0277620697   -1.3783472370    5.5154031947
H       -1.3008188404   -1.4500845397    3.7544239679
29   

C        1.6045766806   -1.1052678500   -0.1257712649
C        1.8709623291   -2.2371703365    0.6445482952
C        1.4560001216    0.1338976255    0.4981437979
C        1.9746061519   -2.1283133295    2.0358042221
C        1.5607253218    0.2391904091    1.8902118532
C        1.4080889227   -0.5907405499    6.2497215855
C        2.4384775989   -1.5752998047    6.0772627930
C        1.8011892194   -0.8932341817    2.6947781861
C        1.1108955451   -0.1518180714    4.9932783361
C        0.0592284850    0.8472490384    4.6035484399
C       -2.3183933274    1.5165002467    4.4069285220
C       -1.7216549448   -0.8242601994    5.0731723677
N        2.6976292518   -1.7153969118    4.8031492963
N        1.9070760131   -0.8366558515    4.1082084460
N       -1.2948377225    0.5288867416    4.7308242733
O        0.3782588206    1.9764862922    4.2209970149
H        1.5253517408   -1.1856423006   -1.2041830210
H        2.0001231018   -3.2018128269    0.1665410605
H        1.2713566601    1.0221662102   -0.0958653328
H        2.1837731471   -3.0198740905    2.6165274180
H        1.4936653556    1.2276270394    2.3203066923
H        0.9659190239   -0.2683553736    7.1842845225
H        2.9201426019   -2.1271621568    6.8761618268
H       -2.5491516104    1.4838128604    3.3375869642
H       -1.9875316022    2.5265666601    4.6696995983
H       -3.2322249164    1.3159646679    4.9750147283
H       -1.8846651319   -0.9103629004    6.1517389719
H       -0.9838406690   -1.5706666260    4.7623108492
H       -2.6533263358   -1.0683277976    4.5529759313
29   

C        1.7819651530   -1.1078612256   -0.2377779019
C        1.9371942452   -2.2530118311    0.5435909732
C        1.6797285899    0.1397065244    0.3795489896
C        1.9739764195   -2.1478867601    1.9384062461
C        1.7209795839    0.2408047936    1.7754853995
C        1.2782290052   -0.7046616813    6.1219176314
C        2.3610762984   -1.6336843581    5.9720464305
C        1.8438519199   -0.9031194832    2.5881368101
C        1.0225179113   -0.2308855503    4.8669839108
C       -0.0455616581    0.7431753639    4.4728855156
C       -2.3918789653    1.5325912293    4.5651503408
C       -1.8125138528   -0.7698551791    5.3592814180
N        2.6910574385   -1.7148729920    4.7103192415
N        1.8956230142   -0.8500845275    4.0033158437
N       -1.3752562000    0.5243866723    4.8457823050
O        0.2399787320    1.8000665705    3.9018810902
H        1.7541760069   -1.1851047458   -1.3189240293
H        2.0329706162   -3.2245204523    0.0717291277
H        1.5818915921    1.0368415407   -0.2215692790
H        2.1000991157   -3.0475744310    2.5303967184
H        1.7016136255    1.2307939248    2.2081209367
H        0.7806254197   -0.4337257935    7.0447927768
H        2.8281281897   -2.1900995700    6.7764348474
H       -2.7556078125    1.4267748264    3.5383253936
H       -1.9893866081    2.5419505540    4.6994293304
H       -3.2349439688    1.4242635283    5.2547448853
H       -1.8076090237   -0.7678081631    6.4534564142
H       -1.1710076468   -1.5800993292    4.9979510205
H       -2.8260618859   -0.9917837858    5.0102571934
29   

C        1.8954888078   -1.1975312813   -0.2499479605
C        3.0204179418   -1.5279414092    0.5071346636
C        0.6959838372   -0.8880392150    0.3931313421
C        2.9439573563   -1.5450084716    1.9045491932
C        0.6240189689   -0.8996883611    1.7911451444
C        1.0580359003   -1.0681983487    6.0941742365
C        2.0511841032   -2.0991004095    5.9572276648
C        1.7516264559   -1.2168026935    2.5784476082
C        0.9058705891   -0.5408580848    4.8435311090
C        0.1120838850    0.6510356256    4.4087066115
C       -1.8942642034    2.0963719398    4.5537604034
C       -1.9267581592   -0.1933440281    5.5649754539
N        2.4342370122   -2.1757559432    4.7092489731
N        1.7121578722   -1.2573757605    3.9944477526
N       -1.1885110770    0.8609149053    4.8777858913
O        0.6328949512    1.5145926555    3.7006846186
H        1.9524517650   -1.1837587797   -1.3325494273
H        3.9552492140   -1.7700064572    0.0143409263
H       -0.1830999472   -0.6401007778   -0.1908774380
H        3.8254628541   -1.8030907249    2.4808768316
H       -0.3291556602   -0.6772689076    2.2516896294
H        0.5980168128   -0.7360010416    7.0161902378
H        2.4428685823   -2.7043136964    6.7666046687
H       -2.3804384242    2.0096550892    3.5771113397
H       -1.2057045534    2.9475609333    4.5352197379
H       -2.6536471768    2.3100433371    5.3125618078
H       -1.8020935472   -0.1028001170    6.6483494770
H       -1.5930558383   -1.1855122532    5.2441954379
H       -2.9930410154   -0.1260207844    5.3263143293
29   

C        1.9820707411   -1.2795318335   -0.2702312266
C        3.1098553735   -1.4986052945    0.5226376354
C        0.7419783135   -1.0660354018    0.3346809151
C        2.9952235258   -1.5010591739    1.9174983914
C        0.6321531409   -1.0618055764    1.7304192557
C        0.9339714443   -1.1522675836    6.0370234916
C        1.9706541652   -2.1424831319    5.9307718089
C        1.7602725106   -1.2665962054    2.5516644317
C        0.8075588372   -0.6158368565    4.7854583254
C        0.0318693726    0.5782836466    4.3326258500
C       -1.8473503671    2.1740353526    4.5564248405
C       -1.9455189691   -0.0303278790    5.7300802425
N        2.4115108948   -2.1847150528    4.7013434505
N        1.6818332730   -1.2894420980    3.9657088271
N       -1.1959122782    0.9175823063    4.9131319357
O        0.4936794417    1.3300982378    3.4714707121
H        2.0686931166   -1.2767652806   -1.3509018083
H        4.0759910757   -1.6649836108    0.0598345016
H       -0.1382083740   -0.9032880416   -0.2767919785
H        3.8776576521   -1.6725766672    2.5237800623
H       -0.3450157746   -0.9094350531    2.1698900354
H        0.4425525178   -0.8435818669    6.9504252941
H        2.3524230041   -2.7414706525    6.7494679131
H       -2.4098508934    2.0581695819    3.6248173838
H       -1.1097137991    2.9736549800    4.4314383645
H       -2.5327453920    2.4861477058    5.3507623623
H       -1.7221676897    0.1183318803    6.7909253359
H       -1.7155212217   -1.0632763051    5.4496828300
H       -3.0208659483    0.1055600684    5.5762265707
29   

C        2.2048512478   -1.5554357507   -0.1637672945
C        3.3116947317   -1.6266774336    0.6841333081
C        0.9229729502   -1.4435887693    0.3790675099
C        3.1340893920   -1.5829931117    2.0716344240
C        0.7499931373   -1.3926912690    1.7676171104
C        0.8475558292   -1.3025067136    6.0758288738
C        1.9297389062   -2.2468209030    6.0354281227
C        1.8543840327   -1.4469266850    2.6417519428
C        0.7604808170   -0.7808675991    4.8125864785
C        0.0067297344    0.4053014798    4.3073603893
C       -1.7484194286    2.1374599364    4.5035612779
C       -1.9041636124    0.0665571265    5.8868347046
N        2.4422879510   -2.2735303795    4.8349211375
N        1.7132889139   -1.4207112316    4.0503966737
N       -1.1486173899    0.8806764705    4.9421040434
O        0.3959766508    1.0184575997    3.3103786921
H        2.3402557057   -1.5878555064   -1.2388908048
H        4.3097348123   -1.7136764806    0.2698953766
H        0.0598192453   -1.3944197748   -0.2747556548
H        3.9992154146   -1.6403575824    2.7226621542
H       -0.2535910502   -1.3154102307    2.1663005401
H        0.3135611529   -1.0066519807    6.9684564890
H        2.2923423203   -2.8220998928    6.8794534300
H       -2.3530150244    1.9761937322    3.6056374584
H       -0.9740221614    2.8802586320    4.2848795594
H       -2.3840763125    2.5530169194    5.2918805996
H       -1.5879959841    0.2771856851    6.9130251889
H       -1.7821142853   -1.0002230845    5.6736049336
H       -2.9740280692    0.2825226881    5.8013339697
29   

C        2.7304209372   -0.9948339505   -0.0988727238
C        2.7180013880    0.0293613231    0.8509973985
C        2.2497675894   -2.2608352249    0.2415511408
C        2.2152238457   -0.2104213231    2.1357850882
C        1.7548943961   -2.4979615200    1.5289354983
C        0.5598313133   -1.5546716603    5.8854072669
C        1.3016240256   -2.7696860572    5.6970335949
C        1.7083957414   -1.4750716454    2.4940722609
C        0.5018802141   -0.9512793892    4.6548423656
C       -0.3477061885    0.1682939285    4.1472933270
C       -2.0008996461    1.9877408447    4.4178067815
C       -0.7601570769    1.1604381367    6.4135262563
N        1.6460577000   -2.8813105418    4.4441199626
N        1.2167671990   -1.7581934030    3.7907118083
N       -1.0626444882    1.0280964100    4.9944719987
O       -0.4298266536    0.3979882272    2.9376911475
H        3.1124633452   -0.8083405600   -1.0961045196
H        3.0951061844    1.0124160629    0.5937173740
H        2.2572416072   -3.0607565029   -0.4900817616
H        2.2169218738    0.5929899145    2.8619975669
H        1.3862546704   -3.4841521627    1.7877018733
H        0.0677046052   -1.2823661640    6.8078382666
H        1.5089632425   -3.5040816999    6.4667718909
H       -2.7171021592    2.3257569750    5.1734516770
H       -2.5763763277    1.5258149026    3.6085975423
H       -1.4621491565    2.8550603652    4.0236195407
H        0.3074007348    1.0069882516    6.6008479516
H       -1.3513313682    0.4505229202    7.0000563812
H       -0.9945529208    2.1724981618    6.7590547175
29   

C        2.7340658108   -0.9540135912   -0.0551303841
C        2.5481769883    0.0800715944    0.8648942672
C        2.4044011370   -2.2634535559    0.2995353035
C        2.0237501486   -0.1943498709    2.1338364777
C        1.8873664313   -2.5347656342    1.5714273316
C        0.4111086505   -1.6436942908    5.8575512829
C        1.2072726423   -2.8294658412    5.7007408826
C        1.6692093233   -1.5064180316    2.5074679003
C        0.3790611164   -1.0498206716    4.6238956977
C       -0.4803542886    0.0571704468    4.1083579227
C       -2.0059642181    1.9790357729    4.4200187120
C       -0.5489856216    1.2465603834    6.3088720491
N        1.6098003456   -2.9254460468    4.4624675187
N        1.1583423117   -1.8218538512    3.7898414179
N       -1.0429179837    1.0212807312    4.9555464543
O       -0.7360489795    0.1454218243    2.9048340872
H        3.1336199695   -0.7414379660   -1.0402429482
H        2.8086061138    1.0975356155    0.5967722800
H        2.5461461701   -3.0712550683   -0.4094147741
H        1.8975014267    0.6216765888    2.8340132660
H        1.6355240077   -3.5548911475    1.8388040423
H       -0.1315475335   -1.3733715829    6.7530408501
H        1.4123462933   -3.5550437888    6.4793861825
H       -2.6078511599    2.4080902401    5.2273863988
H       -2.6956297093    1.4867910595    3.7262391415
H       -1.4860704974    2.7864206965    3.8949798366
H        0.5089441677    0.9778286063    6.3922469437
H       -1.1349500027    0.6707554545    7.0317108746
H       -0.6237505082    2.3077892544    6.5672526168
29   

C        2.7323435967   -0.8331640612    0.0226559497
C        2.4193375592    0.1894521367    0.9202047894
C        2.5269683261   -2.1637939347    0.3911406539
C        1.8925257044   -0.1181556346    2.1803611386
C        2.0070450488   -2.4681158931    1.6544163590
C        0.3068313977   -1.6840829826    5.8780405325
C        1.1614923750   -2.8321504521    5.7436357478
C        1.6631540039   -1.4543817252    2.5689223474
C        0.3014002958   -1.0834634010    4.6494969952
C       -0.5526318550    0.0291167103    4.1342942633
C       -1.9305349070    2.0582843151    4.4692561302
C       -0.3401865432    1.3302524533    6.2544474091
N        1.6270423724   -2.8911414612    4.5240196128
N        1.1515583578   -1.8024286367    3.8430418466
N       -0.9712244320    1.0758787619    4.9641235974
O       -0.9594893640    0.0132212175    2.9705622574
H        3.1345830719   -0.5951644465   -0.9555667864
H        2.5844085210    1.2240214236    0.6417536069
H        2.7676677416   -2.9629997272   -0.3006829991
H        1.6748009790    0.6952233422    2.8602233915
H        1.8518788548   -3.5051401918    1.9304396057
H       -0.2789892570   -1.4277848921    6.7510887882
H        1.3653384799   -3.5572334116    6.5230574589
H       -2.4578269439    2.5294150062    5.3048101456
H       -2.6860752456    1.5809017342    3.8365003989
H       -1.4164565842    2.8315902572    3.8900827782
H        0.6953270542    0.9751663975    6.2657465370
H       -0.9017388423    0.8436252825    7.0577085165
H       -0.3060833491    2.4063022733    6.4530960700
29   

C        2.7497337467   -0.7833652980    0.1164175268
C        2.3178673618    0.2137502572    0.9924501702
C        2.6712457849   -2.1227161984    0.5008800601
C        1.7995515981   -0.1284136863    2.2470580662
C        2.1586082596   -2.4615970783    1.7583631778
C        0.2716676254   -1.8213962455    5.9255160229
C        1.1931233487   -2.9189653832    5.8067548071
C        1.6971200769   -1.4763284082    2.6526300072
C        0.2767980633   -1.2081992148    4.7051343263
C       -0.5889520402   -0.0975406828    4.1991355012
C       -1.8130381053    2.0303443139    4.5384295916
C       -0.0907871470    1.2999137716    6.2006251505
N        1.7099655351   -2.9293314635    4.6055725312
N        1.1959826240   -1.8599714072    3.9214251208
N       -0.8570882390    1.0243522317    4.9900247758
O       -1.1541739580   -0.2030682764    3.1093466093
H        3.1466019778   -0.5185936281   -0.8571586979
H        2.3857590780    1.2560633729    0.7021068615
H        3.0053621850   -2.9024265638   -0.1742266204
H        1.4972043652    0.6736820685    2.9068836105
H        2.1028059059   -3.5059906214    2.0446138806
H       -0.3495353372   -1.5922415595    6.7820668666
H        1.4094302623   -3.6433153074    6.5834940288
H       -2.2631724979    2.5377097151    5.3975170567
H       -2.6285362999    1.5713349425    3.9699448874
H       -1.3127349728    2.7717224879    3.9077691689
H        0.9175383261    0.8781649225    6.1371161363
H       -0.6003572119    0.8879890564    7.0770345989
H        0.0263335185    2.3798360165    6.3366211981
29   

C        2.6581088511   -0.6360574970    0.0921667018
C        1.2852358319   -0.4648008940    0.2762108385
C        3.4160973374   -1.2498233522    1.0895415108
C        0.6736406261   -0.8957765761    1.4597553600
C        2.8015779725   -1.6755246988    2.2723615863
C       -0.0126602036   -1.9640844548    5.7455017789
C        0.8060631822   -3.1221544750    5.5292952418
C        1.4218417790   -1.4884162851    2.4956188722
C        0.0332006179   -1.2568449377    4.5782598119
C       -0.6284140867    0.0574184245    4.2958157052
C       -1.1824150410    2.3825064222    4.9478421114
C        0.6051949638    1.1299384338    6.1734232952
N        1.3161340517   -3.0742023734    4.3272280207
N        0.8466647000   -1.9444739466    3.7077947572
N       -0.4436280438    1.1421132157    5.1586207563
O       -1.4220966647    0.1793742016    3.3577346148
H        3.1304561912   -0.3058592586   -0.8262425184
H        0.6852484905   -0.0093679843   -0.5037653175
H        4.4804904445   -1.4008200658    0.9483886491
H       -0.4001596299   -0.8003648247    1.5338590042
H        3.4048065618   -2.1550539086    3.0352269353
H       -0.5586006319   -1.7163835350    6.6473387560
H        0.9835676030   -3.9104949611    6.2516440467
H       -1.2648778524    2.9395616050    5.8864161317
H       -2.2004528487    2.1777301025    4.6007315761
H       -0.6712105880    3.0055855150    4.2073690567
H        1.4296715391    0.4687269297    5.8877570633
H        0.2005605766    0.8048512786    7.1366595707
H        1.0310960760    2.1318122122    6.2883293788
29   

C        2.6374029108   -0.5016386457    0.2517173833
C        1.2742976317   -0.2904268991    0.4619280104
C        3.3780175452   -1.2135583262    1.1952294321
C        0.6556113094   -0.7786775904    1.6189648377
C        2.7564294794   -1.6998159365    2.3508160094
C       -0.1654682846   -2.0995441823    5.7779606227
C        0.7176380201   -3.2133006654    5.5767511830
C        1.3864353860   -1.4766544438    2.6019681396
C       -0.0835061521   -1.3596964462    4.6353602116
C       -0.7724555528   -0.0572251584    4.3434924891
C       -1.1083032957    2.3567362505    4.7901592680
C        0.7611988185    1.1184637823    5.9089648423
N        1.2925533985   -3.1070221115    4.4069984104
N        0.8049128516   -1.9821670550    3.7929969639
N       -0.4038791572    1.1020487051    5.0299478138
O       -1.7060948214   -0.0077137179    3.5378058060
H        3.1154228030   -0.1248936105   -0.6456507489
H        0.6870383038    0.2423977078   -0.2777947869
H        4.4351125606   -1.3928342602    1.0336209024
H       -0.4114371049   -0.6380697103    1.7089828933
H        3.3494657485   -2.2521892013    3.0712766411
H       -0.7682881430   -1.8971394377    6.6545983194
H        0.8919209978   -4.0131986250    6.2870897935
H       -1.0478467892    3.0005385621    5.6732701002
H       -2.1699050179    2.1794841896    4.5893046620
H       -0.6664747697    2.8802393726    3.9366105941
H        1.5031552443    0.3718481982    5.6085651698
H        0.4600997605    0.9273430420    6.9434301523
H        1.2578240087    2.0926215650    5.8583178682
29   

C        2.5686951880   -0.2867983694    0.4801984117
C        1.2119431760   -0.0631858928    0.7176942413
C        3.2993921566   -1.0899019358    1.3561839432
C        0.5899078542   -0.6297815608    1.8363478455
C        2.6747879902   -1.6564455461    2.4729327475
C       -0.3690260271   -2.2808746598    5.8093923090
C        0.5498375991   -3.3626247924    5.5837416497
C        1.3125556027   -1.4237468531    2.7522361298
C       -0.2064912526   -1.4432217280    4.7471847257
C       -0.9112521340   -0.1459593094    4.4653310482
C       -0.9917204285    2.3336080553    4.5696308184
C        0.9586862185    1.0824510949    5.5364618782
N        1.2001458828   -3.1591078403    4.4663100089
N        0.7277699842   -1.9998659459    3.9088703224
N       -0.3278483752    1.0637857404    4.8474941827
O       -1.9747776908   -0.1378004425    3.8403775780
H        3.0498098836    0.1523509602   -0.3866766105
H        0.6331028892    0.5423174986    0.0289720796
H        4.3515398536   -1.2769721957    1.1723792373
H       -0.4728902813   -0.4659952445    1.9525320009
H        3.2596665037   -2.2775400763    3.1424363836
H       -1.0443783490   -2.1625632913    6.6477826846
H        0.6933147991   -4.2113757601    6.2424231230
H       -0.8215647782    3.0404196860    5.3876914997
H       -2.0748658432    2.2060699972    4.4750203255
H       -0.6049803172    2.7631132173    3.6403013909
H        1.0428985553    0.2515075579    6.2437772348
H        1.0746759986    2.0061692173    6.1117275897
H        1.7751924258    1.0182989716    4.8098736609
29   

C        2.5353347933   -0.1972330589    0.6144479926
C        1.1732425375   -0.0102955829    0.8547810885
C        3.2851761767   -0.9998753752    1.4751463294
C        0.5648392683   -0.6126948021    1.9620147210
C        2.6744616323   -1.6023587715    2.5807225090
C       -0.4997180085   -2.4378767852    5.7903138748
C        0.4657395857   -3.4811800462    5.5724146518
C        1.3081909634   -1.4053234917    2.8629669053
C       -0.2625598471   -1.5171608891    4.8148237542
C       -0.9730050314   -0.2187900299    4.5643216072
C       -0.9528789471    2.2663924870    4.4285785647
C        1.0450796094    1.0296647029    5.2989349213
N        1.2003592686   -3.1887169662    4.5289342072
N        0.7359187914   -2.0097754997    4.0101018349
N       -0.3015035084    0.9959072670    4.7354437054
O       -2.1226996172   -0.2166835826    4.1173351724
H        3.0063479308    0.2702846845   -0.2431319163
H        0.5809901657    0.5954039744    0.1777175654
H        4.3414997749   -1.1582362249    1.2881368134
H       -0.5018782164   -0.4744994184    2.0878305387
H        3.2717196914   -2.2226026753    3.2401810389
H       -1.2468830855   -2.3920907600    6.5731802360
H        0.5803950996   -4.3670579076    6.1863486025
H       -0.7551952593    2.9952691979    5.2207152343
H       -2.0396074190    2.1604037522    4.3537366150
H       -0.5757565758    2.6590155838    3.4792313513
H        1.1876758158    0.2329182894    6.0360502322
H        1.2217066720    1.9782680597    5.8154311662
H        1.7906644092    0.9207892816    4.5048140433
29   

C        2.5064159898   -0.1903568574    0.6592453141
C        1.1426905327   -0.0208741243    0.9046257022
C        3.2716304188   -0.9780441995    1.5206719645
C        0.5480001138   -0.6258667231    2.0178674987
C        2.6744584206   -1.5835564165    2.6319821490
C       -0.5983922890   -2.5378115982    5.7357098943
C        0.3939147351   -3.5588067394    5.5320380702
C        1.3073653104   -1.4031658814    2.9183633921
C       -0.3044776188   -1.5586529115    4.8350289968
C       -1.0105165632   -0.2511427580    4.6457890308
C       -0.9884072722    2.2187495746    4.3832959220
C        1.0783416571    1.0231153390    5.1242781455
N        1.1947243656   -3.2048261908    4.5587634430
N        0.7459152466   -2.0083626394    4.0691247716
N       -0.3111376861    0.9607230116    4.6795754747
O       -2.2195759183   -0.2362045782    4.3993686219
H        2.9671922155    0.2793420472   -0.2027305465
H        0.5395799219    0.5738390914    0.2273964060
H        4.3292517050   -1.1224765423    1.3295852285
H       -0.5193216318   -0.5002875568    2.1547825164
H        3.2814857847   -2.1929473036    3.2927651006
H       -1.3942887384   -2.5368241804    6.4706608408
H        0.4799285680   -4.4726973721    6.1084489034
H       -1.3337697543    2.6890690019    5.3091022094
H       -1.8477047903    2.0650603588    3.7227817998
H       -0.3040909218    2.9006902277    3.8687754504
H        1.3214616274    0.1945388178    5.7971010406
H        1.2548126763    1.9478745867    5.6826906726
H        1.7562056901    0.9979269396    4.2653593372
29   

C        0.8397414880   -1.7909830110    0.3659251201
C        0.0826987678   -2.2725427441    1.4357220503
C        1.8986727667   -0.9138709958    0.6065658215
C        0.3751018592   -1.8662514916    2.7429212284
C        2.1910497610   -0.5117573032    1.9145736138
C        1.6586375850   -0.1965337319    6.4920902836
C        3.0094289197   -0.1090635742    6.0068900681
C        1.4239549889   -0.9604928876    3.0066522816
C        0.8812775643   -0.3899416200    5.3891353612
C       -0.6118978269   -0.4657965447    5.3659277588
C       -2.8234724608   -0.0033500516    4.3531074829
C       -0.8127200641    1.2476291486    3.5591487524
N        3.0197486857   -0.2681382853    4.7078438269
N        1.7330983056   -0.5135367663    4.3132439591
N       -1.3791577510    0.1957225314    4.3992617086
O       -1.1962928435   -1.1337085402    6.2242191178
H        0.6126093393   -2.1046917033   -0.6469826037
H       -0.7289318969   -2.9687947579    1.2553584493
H        2.4967599155   -0.5441872230   -0.2190476064
H       -0.2123975214   -2.2825024822    3.5525023878
H        3.0173827405    0.1690925436    2.0884219896
H        1.3236306701   -0.0865161436    7.5166718149
H        3.8834671098    0.0836775664    6.6182420807
H       -3.3215906449    0.6735003415    5.0542137546
H       -3.0841537633   -1.0358960056    4.6075079350
H       -3.1996361078    0.1878368559    3.3431001575
H       -0.5852355402    0.8618175294    2.5606587856
H        0.0979406892    1.6662971587    3.9989753570
H       -1.5241132998    2.0736707344    3.4601880009
29   

C        0.8502713118   -1.7926697818    0.3529902734
C        0.0682085506   -2.2457731076    1.4176425722
C        1.9160555604   -0.9245174579    0.5966161242
C        0.3431186435   -1.8200076206    2.7226822682
C        2.1913758828   -0.5039959563    1.9023869362
C        1.6037337145   -0.2232263901    6.4780244265
C        2.9624063807   -0.1679090209    6.0121153315
C        1.3998734174   -0.9248445388    2.9877714274
C        0.8285750224   -0.3507885334    5.3626327906
C       -0.6643652449   -0.3104450103    5.3607007548
C       -2.8725527123    0.1390437471    4.3504396032
C       -0.8402126823    1.2212032556    3.3926897926
N        2.9828026073   -0.2783968778    4.7087288100
N        1.6935603540   -0.4650112989    4.2922380453
N       -1.4189325691    0.2591447709    4.3270203137
O       -1.2704062996   -0.7547579636    6.3405667141
H        0.6369992176   -2.1210060290   -0.6583144908
H       -0.7494876908   -2.9341135040    1.2344781734
H        2.5329483353   -0.5764982603   -0.2246171561
H       -0.2644006300   -2.2077091920    3.5317448341
H        3.0237127935    0.1685386940    2.0802784275
H        1.2603400491   -0.1213270812    7.5009472417
H        3.8347711697   -0.0269520313    6.6397713582
H       -3.3014380914    0.8623845110    5.0511112476
H       -3.1706835686   -0.8705518955    4.6519309589
H       -3.2859857546    0.3197074720    3.3531248276
H       -0.6742120826    0.7593521478    2.4147315803
H        0.1051221902    1.6261203353    3.7668793830
H       -1.5167727696    2.0720203475    3.2636181660
29   

C        0.8795705451   -1.7679973270    0.3536724158
C        0.1039713271   -2.2326871832    1.4183996689
C        1.9338157691   -0.8856676469    0.5973296983
C        0.3741991603   -1.8047107612    2.7238816224
C        2.2047842193   -0.4635137526    1.9033983103
C        1.6360403326   -0.3199698984    6.4889541438
C        2.9926330125   -0.2584903009    6.0193726936
C        1.4199640123   -0.8971050522    2.9882788293
C        0.8486586548   -0.3790486702    5.3747629033
C       -0.6385502552   -0.2458099821    5.4150934510
C       -2.8720510569    0.1695058355    4.4580645320
C       -0.8684845221    1.1475089070    3.3531133690
N        3.0046190788   -0.2942355958    4.7122802421
N        1.7112774910   -0.4421551600    4.2940416128
N       -1.4182095160    0.2404630842    4.3572146096
O       -1.2151247553   -0.4913273187    6.4788148774
H        0.6703378029   -2.0979888077   -0.6579520989
H       -0.7049286720   -2.9311269775    1.2345143134
H        2.5455686068   -0.5285117700   -0.2238616734
H       -0.2280808051   -2.1963464057    3.5350884189
H        3.0289510060    0.2186506496    2.0828980478
H        1.3012506915   -0.2487499869    7.5175493772
H        3.8697671891   -0.1622031994    6.6488174707
H       -3.2450400376    0.9541898149    5.1239948022
H       -3.1818272044   -0.8059186077    4.8476280246
H       -3.3296429861    0.2910572589    3.4711311874
H       -0.7568615469    0.6406243241    2.3900421293
H        0.0981483045    1.5542105128    3.6652974650
H       -1.5372855296    2.0031734014    3.2157098481
29   

C        0.9120972054   -1.7399107064    0.3574021544
C        0.1364873736   -2.2139819690    1.4182593844
C        1.9533771914   -0.8434426244    0.6059644212
C        0.3940923355   -1.7815940333    2.7249879112
C        2.2119732594   -0.4172701590    1.9131979386
C        1.6289834561   -0.3951218243    6.4989804733
C        2.9877353212   -0.3395334019    6.0362835173
C        1.4271272942   -0.8611232172    2.9935323885
C        0.8396798440   -0.3864030081    5.3829921666
C       -0.6360253400   -0.1487654662    5.4518281987
C       -2.8887267671    0.2303272767    4.5367757377
C       -0.9142289783    1.0975868781    3.3068044177
N        3.0031645941   -0.3072072884    4.7297083761
N        1.7089684218   -0.4093213094    4.3016038114
N       -1.4384868017    0.2509070983    4.3748016322
O       -1.1724074236   -0.1844767379    6.5623258979
H        0.7130865090   -2.0734208942   -0.6551407530
H       -0.6624229088   -2.9227006393    1.2301510544
H        2.5651764111   -0.4791470213   -0.2120745225
H       -0.2077965937   -2.1766175659    3.5349954759
H        3.0271327425    0.2742231800    2.0982096072
H        1.2961897179   -0.3460577565    7.5296695450
H        3.8644222896   -0.2909819756    6.6718115534
H       -3.2159390690    1.0835419377    5.1396391050
H       -3.2049492670   -0.6952643828    5.0292954571
H       -3.3827423511    0.2711133136    3.5608377328
H       -0.8460804596    0.5432118391    2.3663117021
H        0.0673671709    1.5065932714    3.5638380936
H       -1.5768008780    1.9548274401    3.1502351463
