18   

C        4.6331489242    1.3459723055    0.7538182900
C        5.8139906950    1.1162717667    0.0578438904
C        3.5008874128    0.5758692131    0.4819786556
C        5.8525191672    0.1176164473   -0.9129831855
C        3.5148812075   -0.4449182471   -0.4880718959
C        4.7243040840   -0.6614946612   -1.1988640757
C        2.2836726517   -1.2595635898   -0.7409971179
C        0.9255131869   -0.7892421193   -0.2311504866
O        2.3102354744   -2.3131859061   -1.3628699842
O        4.8394502788   -1.6001087274   -2.1827804188
H        4.5933087419    2.1217186750    1.5103738996
H        6.6964253480    1.7112888699    0.2677202046
H        2.6063407889    0.7855760455    1.0569106839
H        6.7762154318   -0.0470307947   -1.4536463084
H        0.7670971165    0.2586431332   -0.4992966690
H        0.8758646576   -0.9036685341    0.8547635514
H        0.1296915033   -1.3874174942   -0.6844093418
H        5.7506973935   -1.6457512780   -2.5119244285
18   

C        4.6560720010    1.3455003264    0.7980864388
C        5.8087066445    1.1619622705    0.0407734468
C        3.5350944513    0.5453601376    0.5677991315
C        5.8294911253    0.1814569220   -0.9507644129
C        3.5390812337   -0.4554416673   -0.4197620245
C        4.7108291668   -0.6248424521   -1.1941939750
C        2.3294741382   -1.3189268933   -0.6179731070
C        0.9406437169   -0.7750284963   -0.3057242486
O        2.4123600260   -2.4711546229   -1.0185709282
O        4.7846255213   -1.5399449954   -2.2039744735
H        4.6309738011    2.1060787483    1.5704842207
H        6.6827894442    1.7791407618    0.2191879198
H        2.6587921185    0.7057303420    1.1858787983
H        6.7286194320    0.0543170969   -1.5406950126
H        0.8585711615    0.2596013711   -0.6492619552
H        0.7583990453   -0.8184453123    0.7710676000
H        0.1829331542   -1.3739966334   -0.8189728070
H        5.6888866051   -1.5978300921   -2.5507693279
18   

C        4.7236058645    1.2900806842    0.8579608639
C        5.8289614458    1.1404001146    0.0240817971
C        3.5968832321    0.4855203685    0.6732469358
C        5.7968164713    0.1891055280   -0.9967348965
C        3.5526894013   -0.4797736068   -0.3443829146
C        4.6707239867   -0.6193332086   -1.1921516142
C        2.3474367075   -1.3659700565   -0.4960315700
C        0.9502040418   -0.7750503227   -0.3656898210
O        2.4567350047   -2.5681761037   -0.6810882383
O        4.6741181028   -1.5111447650   -2.2252948311
H        4.7408016612    2.0260546954    1.6540196706
H        6.7074982675    1.7604686102    0.1669970830
H        2.7546132548    0.6093641842    1.3450198112
H        6.6581160901    0.0867103709   -1.6450197298
H        0.8937599932    0.1644802920   -0.9218805777
H        0.7197857607   -0.5888424574    0.6860964225
H        0.2119788345   -1.4706904212   -0.7747293520
H        5.5609874190   -1.5831982290   -2.6129038182
18   

C        4.7769616055    1.2316690312    0.9525418043
C        5.8308166202    1.1371717227    0.0451625186
C        3.6523811039    0.4162228940    0.8024124374
C        5.7505627212    0.2283879311   -1.0123180178
C        3.5638512259   -0.4991184923   -0.2538192506
C        4.6258028509   -0.5893715739   -1.1706775590
C        2.3643005783   -1.4049516050   -0.3769963154
C        0.9631906694   -0.8087623200   -0.4041813106
O        2.4840695210   -2.6188476484   -0.3551165292
O        4.5692325062   -1.4487952362   -2.2294476889
H        4.8335868326    1.9317160890    1.7785918279
H        6.7073851705    1.7655605629    0.1612312635
H        2.8511565409    0.4895706372    1.5296132271
H        6.5719453921    0.1659714055   -1.7151802396
H        0.7939810219   -0.3288128798   -1.3717158635
H        0.8460015362   -0.0657397068    0.3877128845
H        0.2178471368   -1.5966133335   -0.2633218005
H        5.4326238366   -1.5044313271   -2.6700833362
18   

C        4.8386256971    1.1837746427    1.0318076776
C        5.8391247371    1.1234480992    0.0622274725
C        3.7104653072    0.3667376636    0.9204153735
C        5.7020284564    0.2466484433   -1.0169378917
C        3.5680907327   -0.5143591444   -0.1557819405
C        4.5729331877   -0.5718901226   -1.1338144788
C        2.3581691156   -1.4159331338   -0.2556184048
C        0.9906648941   -0.8060595576   -0.5242995425
O        2.4380934431   -2.6069932263   -0.0090216900
O        4.4535329942   -1.4055747178   -2.2079336479
H        4.9388035401    1.8590087282    1.8741959017
H        6.7180227328    1.7535688286    0.1470480951
H        2.9441391165    0.4108631487    1.6870672736
H        6.4818005624    0.2098621488   -1.7673927974
H        0.9020941958   -0.5743592807   -1.5889996862
H        0.8687360453    0.1145003018    0.0517287929
H        0.2026521533   -1.5106229744   -0.2442684571
H        5.2844426529   -1.4338334983   -2.7101021189
18   

C        4.9142367594    1.1369592765    1.1193396239
C        5.8512057951    1.1056343328    0.0868139588
C        3.7790521339    0.3245279131    1.0545416343
C        5.6429454139    0.2631489880   -1.0082885360
C        3.5701342767   -0.5278990587   -0.0328433599
C        4.5065762368   -0.5506182130   -1.0771576929
C        2.3326806703   -1.3957109205   -0.1114142168
C        1.0784386093   -0.8460173002   -0.7723221213
O        2.3184521221   -2.5209620057    0.3569035494
O        4.3134658744   -1.3497971346   -2.1669314181
H        5.0674405188    1.7880053520    1.9727148225
H        6.7346539828    1.7333021608    0.1344140603
H        3.0568450069    0.3492429924    1.8638800203
H        6.3722999132    0.2506649380   -1.8085871433
H        1.2780005566   -0.6567853354   -1.8303911854
H        0.7866781173    0.0903328258   -0.2900627034
H        0.2598385512   -1.5659185985   -0.6856049076
H        5.1000015337   -1.3407317708   -2.7372608465
18   

C        4.9701237156    1.0775133993    1.1664757553
C        5.8557073097    1.0796481944    0.0891757542
C        3.8243295764    0.2788919426    1.1243309099
C        5.5867962425    0.2831551927   -1.0270884066
C        3.5543983572   -0.5279086104    0.0145702431
C        4.4399971562   -0.5176556167   -1.0743652317
C        2.2910481144   -1.3567723676   -0.0306313630
C        1.1372968772   -0.9255122647   -0.9244363742
O        2.1822206524   -2.3746476185    0.6332516641
O        4.1962938365   -1.2792287793   -2.1808200236
H        5.1704861468    1.6926066900    2.0365915550
H        6.7469363150    1.6973332547    0.1191521404
H        3.1399477666    0.2782805356    1.9664977243
H        6.2787045510    0.2955175704   -1.8599785857
H        1.4640933415   -0.9008012186   -1.9669946650
H        0.8001105623    0.0722179767   -0.6322965255
H        0.3044945177   -1.6277954973   -0.8292803185
H        4.9509530967   -1.2383925458   -2.7917702982
18   

C        5.0275439127    1.0331201333    1.1988496117
C        5.8693797530    1.0699346710    0.0873066376
C        3.8679040532    0.2546136141    1.1683375815
C        5.5444626518    0.3277477923   -1.0519107747
C        3.5428392847   -0.4978245275    0.0325380724
C        4.3838304717   -0.4537562658   -1.0906134189
C        2.2553888184   -1.2841796603    0.0325155930
C        1.1591128883   -0.9687910334   -0.9756944228
O        2.0621335897   -2.1526924064    0.8700791312
O        4.0927668674   -1.1675914069   -2.2168891992
H        5.2720953456    1.6059341934    2.0863599346
H        6.7711740092    1.6724441624    0.1090975819
H        3.2161623979    0.2267322903    2.0359150144
H        6.2053685644    0.3665629029   -1.9088114101
H        1.4157837594   -1.3922632027   -1.9496846211
H        1.0486531634    0.1141997699   -1.0734575369
H        0.2091334225   -1.3948458107   -0.6416947902
H        4.8195654439   -1.0957417358   -2.8582406482
18   

C        5.0238362091    0.8999920448    1.2659797127
C        5.8416194852    0.9702152969    0.1386765695
C        3.8345499052    0.1689903836    1.2190311664
C        5.4646540341    0.3073211702   -1.0328081672
C        3.4536816969   -0.5034781805    0.0479737210
C        4.2747116026   -0.4279479802   -1.0907943536
C        2.1348636819   -1.2265628262    0.0548249545
C        1.1353179165   -1.0626733650   -1.0823054961
O        1.8274942007   -1.9241431991    1.0129604984
O        3.9434473051   -1.0671396569   -2.2503999376
H        5.3089641717    1.4111590232    2.1786758559
H        6.7657756717    1.5371827858    0.1735389532
H        3.2018534680    0.1189403140    2.0999340490
H        6.1098014550    0.3710746106   -1.9001600951
H        1.3051681000   -1.8365741144   -1.8352860561
H        1.2542597066   -0.0793808880   -1.5448701352
H        0.1156782124   -1.1523485844   -0.6980621644
H        4.6519625684   -0.9606615532   -2.9073073814
18   

C        5.0770859035    0.8538708091    1.2798327898
C        5.8709490453    0.9418144697    0.1379458495
C        3.8596999682    0.1714424311    1.2314795050
C        5.4437161357    0.3423581602   -1.0495379991
C        3.4201689122   -0.4326382186    0.0407205300
C        4.2257620049   -0.3456371586   -1.1122392359
C        2.0824425880   -1.1168180306    0.0737127527
C        1.1450246941   -1.1282065529   -1.1274519105
O        1.6868705618   -1.6163858788    1.1214236485
O        3.8643381122   -0.9313094876   -2.2907165864
H        5.4021335474    1.3140637565    2.2062138581
H        6.8168006977    1.4716842178    0.1745173941
H        3.2517159272    0.1132797656    2.1292577706
H        6.0745881982    0.4160724557   -1.9265514201
H        1.3817876621   -1.9792811466   -1.7712182934
H        1.2539718259   -0.2015531277   -1.6969044613
H        0.1083068165   -1.2131496676   -0.7905180154
H        4.5637840935   -0.8096121608   -2.9547052472
18   

C        5.0830097972    0.7998026193    1.3193374438
C        5.8609611226    0.8893164503    0.1682669379
C        3.8307047940    0.1846207058    1.2692036549
C        5.3831669078    0.3571649272   -1.0306945385
C        3.3329246644   -0.3496816010    0.0655402595
C        4.1299666198   -0.2644106258   -1.0982630876
C        1.9669680649   -0.9783938683    0.1183463243
C        1.1066664478   -1.2078728622   -1.1190034298
O        1.4736853313   -1.2520117208    1.2086311714
O        3.7350380517   -0.7845957136   -2.2960989918
H        5.4471614354    1.2072294878    2.2558395769
H        6.8338619331    1.3675769744    0.2066520140
H        3.2452422682    0.1312731014    2.1820301345
H        6.0042437816    0.4300995890   -1.9147457545
H        1.4613434185   -2.0904136196   -1.6576421684
H        1.1513420598   -0.3346739767   -1.7748359706
H        0.0656042710   -1.3687661540   -0.8255542980
H        4.4289762730   -0.6537209069   -2.9640896394
18   

C        5.1368197563    0.7417162954    1.3248051892
C        5.9095594542    0.8403127856    0.1720257279
C        3.8570325086    0.1876727448    1.2623507863
C        5.3966425052    0.3825852146   -1.0421945028
C        3.3234184494   -0.2794076574    0.0452144916
C        4.1148238331   -0.1761445455   -1.1239601892
C        1.9337491216   -0.8573044862    0.0966843421
C        1.2005330736   -1.4089625725   -1.1209809542
O        1.3396025054   -0.8958518344    1.1707119722
O        3.6851390405   -0.6003468460   -2.3470149005
H        5.5263533360    1.0945460081    2.2731866305
H        6.9041073084    1.2707883833    0.2201115584
H        3.2829163634    0.1269120844    2.1818019798
H        6.0121750636    0.4673545352   -1.9290721584
H        1.7624868954   -2.2430102454   -1.5489829634
H        1.0763611680   -0.6226348197   -1.8699042535
H        0.2104203681   -1.7704838326   -0.8294344932
H        4.3713632620   -0.4426377892   -3.0171390429
18   

C        5.1399416958    0.6652486917    1.3459473739
C        5.9096647267    0.7742045208    0.1910281492
C        3.8354123420    0.1734434769    1.2713793555
C        5.3676156940    0.3938530175   -1.0379942769
C        3.2784060294   -0.2209447857    0.0400085805
C        4.0604104501   -0.1001399506   -1.1308297884
C        1.8700857630   -0.7495810726    0.0729884152
C        1.2736311200   -1.6023571810   -1.0409366500
O        1.1817370469   -0.5623994570    1.0720154821
O        3.5850169745   -0.4302228419   -2.3663127660
H        5.5512228033    0.9613323166    2.3044992231
H        6.9234471978    1.1558851044    0.2485399479
H        3.2594732186    0.0975902606    2.1886606345
H        5.9783431559    0.4912402953   -1.9268869519
H        2.0021430940   -2.3446659385   -1.3768481365
H        0.9848882176   -0.9648488769   -1.8805891619
H        0.3865910024   -2.1271241505   -0.6754383974
H        4.2577059420   -0.2491427510   -3.0442430889
18   

C        4.6333768199    1.9329423988    0.1016786148
C        5.7639059375    1.1271494391   -0.0185698630
C        3.3673870202    1.3994544985   -0.1487914753
C        5.6227471538   -0.2114805875   -0.3929188405
C        3.2150583195    0.0531707736   -0.5233993714
C        4.3596343158   -0.7594388371   -0.6478089517
C        1.8128965991   -0.4423375250   -0.7404684171
C        1.3901683079   -1.8645637092   -0.3936949075
O        0.9522594038    0.3377799710   -1.1334834336
O        4.2780505570   -2.0667810505   -1.0307560910
H        4.7339946956    2.9734951945    0.3893265157
H        6.7477676214    1.5406581582    0.1757532657
H        2.4961276618    2.0397654343   -0.0490805598
H        6.5116931857   -0.8227483263   -0.4862602525
H        1.9515962810   -2.2216955656    0.4735349575
H        1.5804914775   -2.5231805251   -1.2450589681
H        0.3233530022   -1.8887810600   -0.1552784836
H        5.1679976782   -2.4495710514   -1.1106419928
18   

C        4.6038665270    1.9101860330    0.1632563894
C        5.7455799067    1.1228543936    0.0179764950
C        3.3485204632    1.3794519201   -0.1423504704
C        5.6254972963   -0.1946665719   -0.4332678663
C        3.2220406354    0.0596335647   -0.6014095864
C        4.3721697939   -0.7365977796   -0.7421822609
C        1.8346911296   -0.4603524828   -0.8603795496
C        1.3845613147   -1.8153209210   -0.3307931513
O        1.0270533710    0.2333182828   -1.4650992017
O        4.2955817052   -2.0249552138   -1.1863187139
H        4.6882542123    2.9331522064    0.5125741078
H        6.7213270114    1.5335921064    0.2545021143
H        2.4634031174    1.9974366467   -0.0263277282
H        6.5209616551   -0.7939294050   -0.5410025844
H        1.9340126114   -2.0605324268    0.5818689924
H        1.5752749014   -2.5855254495   -1.0825674384
H        0.3151879547   -1.7905125933   -0.1045750210
H        5.1867920247   -2.4005922417   -1.2837862197
18   

C        4.5677681975    1.8358735606    0.2279250179
C        5.7211097815    1.0771153191    0.0291871764
C        3.3209929032    1.3122003974   -0.1228594898
C        5.6201360138   -0.2049570137   -0.5187120216
C        3.2153089642    0.0315659743   -0.6802449048
C        4.3744688196   -0.7369887696   -0.8717093449
C        1.8424448056   -0.5069535345   -0.9982155475
C        1.3227358989   -1.7549966208   -0.2980264825
O        1.1161397421    0.0785887642   -1.7873617398
O        4.3077430000   -1.9915239826   -1.4050439221
H        4.6371519592    2.8311649360    0.6523985345
H        6.6905323650    1.4820475118    0.2993329676
H        2.4257928343    1.9064027567    0.0313099236
H        6.5229384754   -0.7844248832   -0.6661801752
H        1.5658836034   -1.7084863761    0.7665508941
H        1.7834342346   -2.6454578392   -0.7323374727
H        0.2375702105   -1.8244695583   -0.4126312016
H        5.2019927176   -2.3428404878   -1.5520982374
18   

C        4.6407452399    1.8267864250    0.3526210690
C        5.8060269470    1.0973516430    0.1184314011
C        3.4030623344    1.3038490689   -0.0309010369
C        5.7247281412   -0.1547729552   -0.4966322213
C        3.3155562498    0.0559228380   -0.6556509592
C        4.4872822647   -0.6831422769   -0.8816550910
C        1.9654372511   -0.5117718287   -1.0299057302
C        1.3704530784   -1.6467051548   -0.2089599747
O        1.3447822698   -0.0803508760   -1.9876716388
O        4.4351909088   -1.9127835240   -1.4723312816
H        4.6941747800    2.7990209178    0.8295826029
H        6.7687041214    1.5009334704    0.4135539131
H        2.4994923965    1.8767641844    0.1506254814
H        6.6351820012   -0.7148090644   -0.6699237782
H        1.2538502806   -1.3262845259    0.8294235188
H        2.0321285588   -2.5158526768   -0.2421376994
H        0.3926809094   -1.9285719975   -0.6093705571
H        5.3327485802   -2.2407704972   -1.6491175743
18   

C        4.6248892627    1.7745558732    0.4295401853
C        5.8108742121    1.0983048160    0.1447064046
C        3.4005361016    1.2315423130    0.0308123680
C        5.7631400280   -0.1218561904   -0.5345105211
C        3.3466797739    0.0168816565   -0.6579505931
C        4.5387636002   -0.6692658213   -0.9339329252
C        2.0198763456   -0.5797356977   -1.0753633099
C        1.2887907420   -1.5108249821   -0.1210729695
O        1.5206570610   -0.3175839679   -2.1559872953
O        4.5151575260   -1.8730339814   -1.5773387530
H        4.6524069228    2.7216788651    0.9565907580
H        6.7633749302    1.5175501300    0.4507927043
H        2.4818685291    1.7654947029    0.2502824114
H        6.6885635928   -0.6432196482   -0.7451354125
H        1.1277888398   -1.0074188861    0.8355402714
H        1.8905391130   -2.4085649466    0.0435631998
H        0.3221841743   -1.8001823778   -0.5427713807
H        5.4178808069   -2.1576899654   -1.7965589216
18   

C        4.6013855836    1.6757170087    0.5019554069
C        5.8138783783    1.0740237325    0.1664644094
C        3.3982152900    1.0905254321    0.0986739630
C        5.8143188545   -0.1140582312   -0.5688151351
C        3.3916856427   -0.0971020480   -0.6391016682
C        4.6117914296   -0.7049138994   -0.9729664113
C        2.0871838922   -0.7101778706   -1.0964170613
C        1.1356211619   -1.2997716043   -0.0663161466
O        1.7301550443   -0.6361832941   -2.2595425139
O        4.6386702379   -1.8760920741   -1.6734219352
H        4.5922985615    2.5995605348    1.0694279168
H        6.7500530005    1.5271053828    0.4746889681
H        2.4605692334    1.5735497378    0.3525743673
H        6.7604453692   -0.5765525539   -0.8208542513
H        1.0916668557   -0.6580178296    0.8170440146
H        1.4931206080   -2.2895004825    0.2299050592
H        0.1322832085   -1.3936068820   -0.4909326080
H        5.5465805106   -2.0886074440   -1.9453015711
18   

C        4.5873769387    1.5891786861    0.5710030441
C        5.8160857275    1.0573664265    0.1832784075
C        3.4013773660    0.9691332496    0.1695989583
C        5.8506140530   -0.0972989530   -0.6016723560
C        3.4262035409   -0.1879580558   -0.6189376908
C        4.6666469839   -0.7254585745   -1.0048188596
C        2.1378869441   -0.8202344679   -1.0829247623
C        1.0683740271   -1.1964380338   -0.0661122327
O        1.8879807669   -0.9476320896   -2.2702253857
O        4.7369425769   -1.8663153030   -1.7506788769
H        4.5521594724    2.4877255884    1.1768116643
H        6.7387814606    1.5386785334    0.4893628628
H        2.4546726588    1.4086709955    0.4640783607
H        6.8099936932   -0.5059996569   -0.8934520611
H        0.9027595189   -0.3783770796    0.6383450596
H        1.3913754807   -2.0829373853    0.4860613467
H        0.1274388353   -1.4194577174   -0.5769826188
H        5.6446561386   -2.0152495898   -2.0614424790
18   

C        4.5896341772    1.4929910345    0.6481590731
C        5.8229804605    1.0375991286    0.1887726427
C        3.4169433033    0.8414435645    0.2592721180
C        5.8756164164   -0.0743789020   -0.6531174906
C        3.4536729761   -0.2734179294   -0.5920953886
C        4.7060734427   -0.7363168313   -1.0453526695
C        2.1758319672   -0.9312762710   -1.0345160578
C        1.0531050633   -1.1592910821   -0.0315611643
O        1.9925979962   -1.2542376615   -2.1979606306
O        4.8118148636   -1.8395187845   -1.8419022343
H        4.5398555250    2.3567567120    1.3016830367
H        6.7356600716    1.5434717605    0.4851597447
H        2.4673310044    1.2240328397    0.6168936211
H        6.8402145028   -0.4256925490   -0.9976817786
H        0.5363876618   -0.2181184764    0.1714441338
H        1.4657305997   -1.5555584117    0.9000847215
H        0.3356779147   -1.8805307135   -0.4332035313
H        5.7172439426   -1.9336580089   -2.1785108606
18   

C        4.5826632265    1.4237068732    0.7108281476
C        5.8176382580    1.0461817943    0.1930187439
C        3.4274337081    0.7374722381    0.3308361422
C        5.8899833897   -0.0242299172   -0.6980374662
C        3.4775569990   -0.3374059328   -0.5740333023
C        4.7395327197   -0.7229813689   -1.0840153957
C        2.2133872515   -1.0303569648   -0.9864765866
C        1.0264262259   -1.0897589844   -0.0326453144
O        2.0871653499   -1.5527736810   -2.0846796626
O        4.8844434277   -1.7840944957   -1.9299148394
H        4.5174260658    2.2542804801    1.4048018250
H        6.7168346610    1.5792298652    0.4829621468
H        2.4800889424    1.0673826428    0.7423461862
H        6.8577378610   -0.3155377078   -1.0868879965
H        0.4810625893   -0.1429477826   -0.0592287209
H        1.3745466266   -1.2829996841    0.9855319819
H        0.3512051076   -1.8974033048   -0.3294580382
H        5.7934630535   -1.8355862753   -2.2650853913
18   

C        4.6207900480    1.3814590635    0.7150208377
C        5.8377374089    1.0479810197    0.1324740655
C        3.4647988220    0.6795402156    0.3686603171
C        5.8910279139    0.0068742106   -0.7919491346
C        3.4892121383   -0.3712249734   -0.5686232400
C        4.7405654612   -0.7083133434   -1.1476939517
C        2.2250232610   -1.0910941863   -0.9251415909
C        0.9827395976   -0.9537663162   -0.0512910289
O        2.1364666913   -1.8138890230   -1.9086446949
O        4.8848073322   -1.7305617040   -2.0401899689
H        4.5697222993    2.1894924154    1.4362837894
H        6.7377644917    1.5924495997    0.3975958306
H        2.5379597886    0.9820618903    0.8421447752
H        6.8462522569   -0.2483906517   -1.2335670932
H        0.5472086390    0.0407829356   -0.1775931412
H        1.2438556149   -1.1115398548    0.9984648806
H        0.2392607682   -1.7023746704   -0.3401062772
H        5.7951709346   -1.7736718472   -2.3721084560
18   

C        4.6296201157    1.3631536659    0.7326776977
C        5.8322206785    1.0850063409    0.0954469511
C        3.4864214599    0.6250096212    0.4213919426
C        5.8829987997    0.0661348114   -0.8527034345
C        3.5073892624   -0.4113221858   -0.5332159435
C        4.7452474083   -0.6839005102   -1.1766033043
C        2.2589105601   -1.1798849009   -0.8387197265
C        0.9501179606   -0.8554548746   -0.1252595211
O        2.2285397163   -2.0876898648   -1.6594186106
O        4.8890443264   -1.6621162901   -2.1171690124
H        4.5801025493    2.1545147764    1.4723126855
H        6.7226535280    1.6565268487    0.3347956752
H        2.5753353025    0.8835827870    0.9479434175
H        6.8262915339   -0.1410745033   -1.3425141653
H        0.6576814732    0.1772124694   -0.3326086569
H        1.0667093309   -0.9982212119    0.9522097082
H        0.1566413332   -1.5196080767   -0.4802677010
H        5.8023436721   -1.6989124214   -2.4413937518
