51

C     -7.83166   -6.39390  -11.82722
C     -7.78366   -5.01050  -12.14636
C     -6.98626   -6.91563  -10.87090
C     -5.16231   -6.54636   -9.20229
C     -0.56313   -1.02528   -6.18183
C     -0.02556   -3.02195   -4.95018
C     -6.89449   -4.17206  -11.50700
C     -1.51053   -1.73015   -6.93337
C     -0.96248   -3.73350   -5.68998
C     -4.29432   -5.66718   -8.59439
C     -6.05939   -6.07600  -10.19543
C      0.18444   -1.65041   -5.18030
C     -6.01079   -4.68171  -10.51695
C     -1.71599   -3.09215   -6.68477
C     -4.32650   -4.30177   -8.98630
C      2.46721   -1.67967   -4.14185
C     -0.70155   -0.64638   -0.97256
C     -1.36911    0.50055   -1.76846
C      0.03318   -1.47326   -2.03692
C     -0.55252    0.63337   -3.08604
C      0.60635   -0.39030   -2.96782
C     -3.40137   -3.27208   -8.37471
C      1.17178   -0.84411   -4.33865
N     -5.14523   -3.82244   -9.90485
O      2.57658   -2.58141   -3.33911
O      3.47820   -1.33164   -4.96214
O      1.53176    0.33103   -5.11057
O     -2.61352   -3.87885   -7.35523
H     -8.53882   -7.03917  -12.34158
H     -8.45596   -4.61322  -12.90243
H     -7.01863   -7.97426  -10.62266
H     -5.16784   -7.59953   -8.92933
H     -0.39881    0.02593   -6.38882
H      0.55391   -3.53897   -4.19325
H     -6.84322   -3.11196  -11.73763
H     -2.06810   -1.20702   -7.70171
H     -1.12274   -4.79310   -5.51358
H     -3.59474   -5.98771   -7.83179
H      0.02289   -0.24089   -0.25618
H     -1.42163   -1.24034   -0.40186
H     -2.41027    0.25360   -1.99720
H     -1.38360    1.43438   -1.19896
H      0.80240   -2.13310   -1.63507
H     -0.68590   -2.08753   -2.58877
H     -1.17686    0.38411   -3.94788
H     -0.19234    1.65568   -3.24091
H      1.44317    0.08355   -2.43089
H     -2.75802   -2.85720   -9.16128
H     -4.00277   -2.45259   -7.96201
H      3.15466   -0.56741   -5.48766
H      1.68525    1.06217   -4.49084
