29   

C        2.3220056516   -3.3713151603    0.4960854865
C        3.1980987697   -2.5967793196    1.2589489638
C        0.9445131101   -3.2466184589    0.6856204393
C        2.6974110174   -1.7147395468    2.2231506994
C        0.4430493924   -2.3633996017    1.6479498566
C       -0.1733534574   -3.4794185987    5.7544469118
C        0.4098256616   -4.7286296573    5.9782416993
C       -1.1143463408   -4.3114959229    3.6965883383
C        1.3108384069   -1.6114618286    2.4591259217
C       -0.9290603146   -3.2543778876    4.5998910470
C        0.2457885624   -5.7761638788    5.0634961624
C       -0.5294564229   -5.5650993046    3.9089481021
C        0.8672672910   -0.6482524085    3.4698439638
C       -0.3002261262   -0.4753195610    4.1185626354
O       -2.5075404253   -1.6521660832    3.0642590303
O       -2.4798291066   -1.2135972975    5.4586738725
S       -1.6897845478   -1.6260970326    4.2885706766
Cl       1.0007437085   -7.3234805965    5.3776842584
Cl      -0.7754742456   -6.8391750410    2.7340687365
H        2.7082427797   -4.0565239307   -0.2504012066
H        4.2678108483   -2.6790983003    1.1025215473
H        0.2596681917   -3.8253171950    0.0757722338
H        3.3994856473   -1.1232241000    2.8001523942
H       -0.6285402269   -2.2556245857    1.7179124726
H       -0.0402297734   -2.6824327688    6.4809623245
H        0.9977687739   -4.8947431988    6.8730815386
H       -1.7230557764   -4.1644225740    2.8087573815
H        1.6254190001    0.0750432045    3.7524034178
H       -0.4374724789    0.4184996777    4.7082057168
29   

C        2.1688333137   -3.5528025790    0.6819309781
C        3.0575576695   -2.9056575213    1.5439574942
C        0.8156315655   -3.2072310020    0.6939565522
C        2.5900918421   -1.9283867277    2.4300300133
C        0.3474808261   -2.2302778899    1.5793948927
C       -0.1068638975   -3.4261884342    5.7115844649
C        0.5518706235   -4.6442524918    5.8954182353
C       -0.9823597711   -4.2416654435    3.6188194606
C        1.2209392305   -1.6029353583    2.4840970223
C       -0.8670838233   -3.2074248691    4.5590218399
C        0.4602310140   -5.6659164154    4.9417844236
C       -0.3208085895   -5.4626066219    3.7899866093
C        0.7885850688   -0.5637590292    3.4267177528
C       -0.3743241938   -0.4020685206    4.0822573255
O       -2.5500291191   -1.6655011590    3.0763055271
O       -2.4862165789   -1.2413408055    5.4753895112
S       -1.7081014700   -1.6124482251    4.2834364749
Cl       1.3133213495   -7.1713990687    5.2033749200
Cl      -0.4758004090   -6.7037430475    2.5653384004
H        2.5293680968   -4.3123781829   -0.0029062420
H        4.1108037660   -3.1622393652    1.5259737779
H        0.1270522460   -3.6895674312    0.0090938362
H        3.2962029798   -1.4382125917    3.0909536317
H       -0.6971973368   -1.9509664540    1.5312092531
H       -0.0263129673   -2.6474945018    6.4651496913
H        1.1447257601   -4.8053470157    6.7878486896
H       -1.5898959400   -4.0980194331    2.7297018475
H        1.5488908712    0.1716656192    3.6695139157
H       -0.5408717761    0.5036682881    4.6453598825
29   

C        1.9549152859   -3.7091536713    0.8288069031
C        2.8092315803   -3.2514096288    1.8358161201
C        0.7022451623   -3.1144000275    0.6569596997
C        2.4073416923   -2.2072085649    2.6767166036
C        0.2978314936   -2.0742028121    1.5007865776
C       -0.0856478744   -3.3881518504    5.6851012460
C        0.6451908924   -4.5678993977    5.8469832157
C       -0.8671314867   -4.1929769697    3.5515171529
C        1.1372304989   -1.6222771799    2.5329554373
C       -0.8332821478   -3.1812850512    4.5220951788
C        0.6382100458   -5.5628834381    4.8611527698
C       -0.1337068970   -5.3750246605    3.7008702920
C        0.7369044206   -0.5324933946    3.4406843584
C       -0.4296955076   -0.3681635046    4.0831935455
O       -2.5434760417   -1.6832929019    3.0238445780
O       -2.5425220109   -1.2830474712    5.4335252118
S       -1.7324344783   -1.6162321361    4.2515431822
Cl       1.5875494393   -7.0148695586    5.0914768933
Cl      -0.1829495059   -6.5838058149    2.4356082939
H        2.2646895582   -4.5200694875    0.1788859511
H        3.7838602628   -3.7080944527    1.9659817946
H        0.0419927525   -3.4571527099   -0.1319865654
H        3.0802972242   -1.8656318823    3.4551400102
H       -0.6704230202   -1.6121858441    1.3394572336
H       -0.0650283172   -2.6267634532    6.4600260388
H        1.2317329892   -4.7180888943    6.7454447319
H       -1.4588052443   -4.0561596748    2.6507195864
H        1.5147256185    0.1854043598    3.6802553337
H       -0.6160015016    0.5356407978    4.6429341807
29   

C        1.8470416315   -3.7480608915    0.8906262929
C        2.6266529912   -3.3936797701    1.9956229974
C        0.6928444468   -3.0187492776    0.5912306942
C        2.2526323354   -2.3112453346    2.8003170364
C        0.3159872876   -1.9403984019    1.3991225008
C       -0.0781122717   -3.3634551637    5.6551664177
C        0.6730533579   -4.5294367305    5.8248936500
C       -0.8015847043   -4.1711232599    3.5019636269
C        1.0907881315   -1.5767877120    2.5123706319
C       -0.8077019848   -3.1650508488    4.4790624549
C        0.7022434277   -5.5202298976    4.8352926263
C       -0.0519674125   -5.3419452577    3.6619463074
C        0.6919943487   -0.4564548508    3.3922654672
C       -0.4509102876   -0.3416796510    4.0807140972
O       -2.5003457047   -1.6861458220    2.9417220009
O       -2.5850129383   -1.3127549177    5.3565299878
S       -1.7321621047   -1.6162468557    4.1967304525
Cl       1.6751373475   -6.9547828729    5.0765517070
Cl      -0.0588457688   -6.5489694635    2.3939209371
H        2.1348775800   -4.5885855383    0.2688349143
H        3.5194963435   -3.9617508788    2.2311862076
H        0.0853135076   -3.2896644866   -0.2651286332
H        2.8615255501   -2.0518905679    3.6590000879
H       -0.5844395459   -1.3837700641    1.1580034001
H       -0.0863138057   -2.6056908271    6.4338274636
H        1.2466134539   -4.6725045935    6.7329057912
H       -1.3746222251   -4.0381147799    2.5885950048
H        1.4530052168    0.2933522478    3.5829811460
H       -0.6456096110    0.5391056854    4.6731934222
29   

C        2.0812644882   -3.2008717964    0.8074135914
C        2.3630966480   -3.9910362149    1.9260918593
C        1.8244519440   -1.8357503045    0.9664060909
C        2.3931614368   -3.4154900668    3.2016116832
C        1.8527147462   -1.2614940796    2.2420048186
C       -0.8249580021   -3.9144596143    4.9266815966
C       -0.9392733347   -5.1886794642    4.3642043978
C       -1.0269838777   -2.9506484945    2.7257599527
C        2.1472752585   -2.0436623913    3.3688127183
C       -0.8487994232   -2.7819921690    4.1067159420
C       -1.0925264156   -5.3570378806    2.9821490944
C       -1.1463480056   -4.2223037674    2.1533360324
C        2.1380856025   -1.4559277123    4.7318931350
C        1.0608777457   -1.0821932333    5.4302754968
O       -0.8100274150   -0.0828869160    3.7617216783
O       -1.5529480674   -0.9114615199    5.9397598323
S       -0.6372767129   -1.1084611796    4.8050389893
Cl      -1.2112232918   -6.9708496501    2.3155810667
Cl      -1.3458946151   -4.3719230692    0.4204429216
H        2.0531291772   -3.6474436294   -0.1803914704
H        2.5505572804   -5.0519629599    1.8050241189
H        1.5965026070   -1.2211934747    0.1026048870
H        2.6000168927   -4.0396997813    4.0635249995
H        1.6361277431   -0.2040215136    2.3590373849
H       -0.7087579093   -3.8048656851    6.0014302216
H       -0.9079690013   -6.0636250352    5.0025878476
H       -1.0585749617   -2.0797590665    2.0768887463
H        3.0902048054   -1.4458305806    5.2525561397
H        1.1602105598   -0.7227887719    6.4429870665
29   

C        2.1000068284   -3.2793193332    0.8611411859
C        2.2728393219   -4.0141885247    2.0381577310
C        1.9395253133   -1.8916875377    0.9241414854
C        2.2877670053   -3.3612636486    3.2760795398
C        1.9575757351   -1.2397569683    2.1622229059
C       -0.7993049094   -3.9544825515    4.9175870121
C       -0.9078708950   -5.2112783303    4.3153917269
C       -1.0269134558   -2.9231094663    2.7495175834
C        2.1401816937   -1.9678322427    3.3463124774
C       -0.8393661013   -2.7967777908    4.1339283811
C       -1.0729236475   -5.3368075281    2.9299866307
C       -1.1430343607   -4.1768091828    2.1381743608
C        2.1264060470   -1.2895134311    4.6700026622
C        1.0602188145   -1.0368348903    5.4342764506
O       -0.9286199297   -0.0925641989    3.8835375042
O       -1.5321066924   -1.0225171949    6.0613925664
S       -0.6601556869   -1.1414304409    4.8820550758
Cl      -1.1860488902   -6.9293319150    2.2131628923
Cl      -1.3591892347   -4.2727329572    0.4034382831
H        2.0810470321   -3.7856095219   -0.0976622519
H        2.3854948463   -5.0914522824    1.9915504778
H        1.7953010688   -1.3200291216    0.0141144775
H        2.4097851797   -3.9405678145    4.1842869767
H        1.8173744448   -0.1643559693    2.2057816073
H       -0.6787098008   -3.8779019472    5.9947868926
H       -0.8651600687   -6.1060368262    4.9250712633
H       -1.0718468771   -2.0322328243    2.1290749659
H        3.0997569876   -1.0568199661    5.0898235695
H        1.1829347230   -0.6684730552    6.4412059087
29   

C        2.7883030528   -4.2957558009    2.0007114643
C        3.1455881750   -4.1035584661    3.3386401754
C        2.0482290227   -3.3161482495    1.3323334615
C        2.7582741725   -2.9364868623    4.0068926939
C        1.6646329988   -2.1491156963    2.0025144827
C       -0.3982658052   -4.1793693745    3.9962222181
C       -0.7766357664   -4.8744857365    2.8471969910
C       -1.7264169699   -2.2989478828    3.2794380693
C        2.0025143710   -1.9545791265    3.3505991127
C       -0.8571983150   -2.8759194083    4.2152497129
C       -1.6182490242   -4.2878156100    1.8958759538
C       -2.1038856306   -2.9853364128    2.1172433234
C        1.6164645780   -0.7049149725    4.0536402430
C        0.6689720958   -0.5680780713    4.9868592657
O       -1.4469010894   -1.3783680419    6.4010580547
O        0.5584982048   -2.7740346344    6.5355538769
S       -0.2950533701   -1.9359500302    5.6754084607
Cl      -2.0407995473   -5.1815083263    0.4518037785
Cl      -3.1576851068   -2.2037156145    0.9588661420
H        3.0871777538   -5.1998051972    1.4818961437
H        3.7239018083   -4.8573229028    3.8612731989
H        1.7697028862   -3.4598548267    0.2943424990
H        3.0369258849   -2.7967743327    5.0469470368
H        1.0902860140   -1.3962574609    1.4741131016
H        0.2717299833   -4.6465083532    4.7137161283
H       -0.4028772690   -5.8779165852    2.6826340440
H       -2.1057626614   -1.2947387800    3.4431842189
H        2.0700013361    0.2075031409    3.6800117897
H        0.4268861266    0.4032832515    5.3900446264
29   

C        2.8474055350   -4.2853830484    2.0180143019
C        3.0672229020   -4.1107180500    3.3872402670
C        2.2083544070   -3.2819086452    1.2844439472
C        2.6400282118   -2.9390194823    4.0219433503
C        1.7875298793   -2.1084723128    1.9203197459
C       -0.4114489420   -4.1920277861    3.9949102933
C       -0.8038591418   -4.8720755881    2.8415560872
C       -1.7303281808   -2.2944914706    3.3077143403
C        1.9831324431   -1.9310626064    3.2986739001
C       -0.8572746663   -2.8869506227    4.2299324594
C       -1.6495687223   -4.2696464433    1.9036924162
C       -2.1239989008   -2.9662903062    2.1427831837
C        1.5350846803   -0.6883072074    3.9660982485
C        0.6707270690   -0.5830064508    4.9832800024
O       -1.4104909220   -1.4096485971    6.4389637229
O        0.5998796850   -2.8000522253    6.5279988798
S       -0.2710333687   -1.9591506887    5.6882337558
Cl      -2.0924184751   -5.1455675112    0.4548382613
Cl      -3.1836093887   -2.1653091962    1.0030744939
H        3.1754701251   -5.1940395521    1.5255497260
H        3.5698047626   -4.8815185298    3.9608782996
H        2.0370542527   -3.4124006442    0.2217837706
H        2.8191560514   -2.8147624601    5.0855706828
H        1.2900834008   -1.3393890047    1.3398842534
H        0.2596286325   -4.6721170945    4.7027070985
H       -0.4392473247   -5.8765326581    2.6632773927
H       -2.0997185317   -1.2887607861    3.4842840247
H        1.8584955993    0.2400428196    3.5063551889
H        0.4396678716    0.3814109381    5.4090890367
29   

C        2.9381558060   -4.2200076094    1.9827390064
C        2.9751817918   -4.1077967852    3.3746933441
C        2.4433462466   -3.1624318526    1.2157296512
C        2.5064765156   -2.9457302140    3.9975422686
C        1.9814631931   -1.9985672687    1.8405215290
C       -0.4718359403   -4.1820182085    4.0738778770
C       -0.8817281853   -4.8997056193    2.9497128598
C       -1.7545487477   -2.2875817402    3.3140767244
C        1.9906428089   -1.8803797955    3.2396474813
C       -0.8906122699   -2.8597867354    4.2571467923
C       -1.7207674278   -4.3193161549    1.9919716381
C       -2.1677397820   -2.9980328000    2.1795914940
C        1.4740279099   -0.6565091255    3.8779540664
C        0.6641752122   -0.5463310133    4.9421104181
O       -1.4353547055   -1.3004043531    6.4079720345
O        0.5506761179   -2.7130204767    6.5624307389
S       -0.2983531024   -1.8894857962    5.6842542682
Cl      -2.1929038576   -5.2460501253    0.5845519557
Cl      -3.2206113396   -2.2239616418    1.0153124638
H        3.2978632340   -5.1213899228    1.4990632680
H        3.3709841424   -4.9189557764    3.9755962603
H        2.4153338335   -3.2438811616    0.1348961008
H        2.5619334837   -2.8719106221    5.0783563273
H        1.5947662243   -1.1900223425    1.2301284485
H        0.1876942481   -4.6487533429    4.8011827540
H       -0.5398286730   -5.9183879867    2.8113309423
H       -2.1050990070   -1.2691956960    3.4523356403
H        1.7213453826    0.2721382796    3.3736796060
H        0.4562763570    0.4248092569    5.3647916836
29   

C        3.0358064229   -4.0341724829    1.7318753324
C        2.7687047149   -4.1483471895    3.0970776766
C        2.8214726443   -2.8153139254    1.0865687491
C        2.2771234725   -3.0503917830    3.8117232414
C        2.3319146667   -1.7182541903    1.8038850367
C       -0.6795805289   -4.3060534034    4.3343949061
C       -1.1066372546   -5.1047701347    3.2727224955
C       -1.5975680114   -2.3706148694    3.2274303722
C        2.0358168978   -1.8186730847    3.1748676121
C       -0.9101461465   -2.9258694242    4.3150793883
C       -1.7733942635   -4.5475774932    2.1756357808
C       -2.0245006481   -3.1630132121    2.1541795276
C        1.4875024921   -0.6491378751    3.8708062028
C        0.6529315345   -0.5596063127    4.9213517992
O       -1.4770987184   -1.2550021121    6.3676411453
O        0.4920009851   -2.6577650058    6.6277613051
S       -0.3296151001   -1.8751239798    5.6885317999
Cl      -2.2816665315   -5.5825635483    0.8590994597
Cl      -2.8567063405   -2.4137884358    0.8090157610
H        3.4147386986   -4.8853924477    1.1772135097
H        2.9498536171   -5.0870847718    3.6082301184
H        3.0321011946   -2.7195955333    0.0272782530
H        2.1182103555   -3.1656702769    4.8757547202
H        2.1657947328   -0.7841830715    1.2787339486
H       -0.1628277712   -4.7589562815    5.1770994107
H       -0.9192174982   -6.1717242180    3.2951889183
H       -1.8019098997   -1.3047102700    3.2040374610
H        1.7648599275    0.3052555047    3.4347003300
H        0.4489585220    0.4115618376    5.3464204296
29   

C        3.3431326871   -3.9362528490    1.7049330822
C        2.8302860464   -4.1448919021    2.9852826628
C        3.2553514149   -2.6701254653    1.1267869765
C        2.2226000431   -3.0939809021    3.6813657899
C        2.6481495634   -1.6207099993    1.8248541554
C       -0.7889882580   -4.3438478063    4.3990075751
C       -1.3004522835   -5.1636908863    3.3917690096
C       -1.7282160395   -2.4208654085    3.2878796593
C        2.1088345871   -1.8098534557    3.1117901053
C       -0.9889235088   -2.9594785264    4.3498824566
C       -2.0230076605   -4.6240622068    2.3213242528
C       -2.2412319974   -3.2348257745    2.2699768241
C        1.4424836690   -0.6768155944    3.7569882841
C        0.6016603581   -0.5815683806    4.8046188615
O       -1.4303438663   -1.2475406078    6.3943534228
O        0.5509002349   -2.6439324733    6.5701903238
S       -0.3236132514   -1.8816675354    5.6627895811
Cl      -2.6428120424   -5.6864431521    1.0762274423
Cl      -3.1422957156   -2.5067603070    0.9577927453
H        3.8127145966   -4.7512935145    1.1654449106
H        2.9102455392   -5.1223350846    3.4473659840
H        3.6554024616   -2.5001667306    0.1334517258
H        1.8803459955   -3.2988762881    4.6836052682
H        2.5860853686   -0.6501947115    1.3451563611
H       -0.2363441274   -4.7846818320    5.2253022434
H       -1.1394952244   -6.2342898124    3.4377643928
H       -1.9113681339   -1.3517091126    3.2432531666
H        1.6711919050    0.2821573781    3.3031761760
H        0.3527388296    0.4012083510    5.1759377506
29   

C        2.8480716542   -2.1961291734    0.3981605997
C        1.4892035502   -2.1444647851    0.7054602243
C        3.7858451356   -1.8886363588    1.3823646040
C        1.0691152271   -1.7926639028    1.9932226473
C        3.3631074264   -1.5369205748    2.6687514227
C       -0.7088836959   -4.1786414974    5.3647506250
C       -0.6499511410   -5.5528836437    5.1236575366
C       -1.4878987605   -3.8356428154    3.1090312249
C        1.9959776804   -1.4836688375    3.0097179211
C       -1.1134188994   -3.3027490105    4.3517658616
C       -0.9991530711   -6.0817161861    3.8753944613
C       -1.4268033590   -5.2115766527    2.8559780401
C        1.6517682300   -1.1550317751    4.3938911743
C        0.5039679391   -1.0449878674    5.0926639046
O       -1.6783370406   -0.7795724898    3.4766255380
O       -2.0412978830   -1.2536954537    5.8383529306
S       -1.1947589762   -1.5058981485    4.6623261570
Cl      -0.9046442806   -7.8095976093    3.6128328203
Cl      -1.8861394465   -5.8177834891    1.2794265724
H        3.1721091522   -2.4700793881   -0.5997483559
H        0.7535187121   -2.3732182752   -0.0575291660
H        4.8443980576   -1.9248280732    1.1505784253
H        0.0082193068   -1.7504988709    2.1582099637
H        4.1205464137   -1.3111385545    3.4110473628
H       -0.4430631673   -3.7917989735    6.3448262974
H       -0.3324778896   -6.2241928523    5.9129359033
H       -1.8400556887   -3.1767615865    2.3201628697
H        2.5178851422   -0.9047258692    4.9977997712
H        0.5606723621   -0.6501708692    6.0958863484
29   

C        2.5737041981   -2.6838901695    0.6592738461
C        1.2555810516   -2.2934619075    0.8950608700
C        3.5375835745   -2.4841018151    1.6474503245
C        0.9003021654   -1.7157603927    2.1189710360
C        3.1794533219   -1.9070694828    2.8708054491
C       -0.3692636307   -4.1254123621    5.3946495227
C       -0.1334510702   -5.4672091043    5.0870673749
C       -1.3049997368   -3.8081785396    3.1954784500
C        1.8521548331   -1.5215584822    3.1399369982
C       -0.9433453281   -3.2774989981    4.4426909160
C       -0.4703182546   -5.9901984796    3.8325020882
C       -1.0668829587   -5.1496542530    2.8753590165
C        1.5406387527   -0.9859316772    4.4666903558
C        0.3870297600   -0.8071182444    5.1389706228
O       -1.9173081376   -0.8440462826    3.7014057323
O       -2.0349696742   -1.4123831811    6.0648054636
S       -1.2495257537   -1.5206136565    4.8259750055
Cl      -0.1492967329   -7.6750374331    3.4845289727
Cl      -1.5155151364   -5.7490859817    1.2931193548
H        2.8478569170   -3.1335371903   -0.2886596010
H        0.5048356000   -2.4302148170    0.1247041431
H        4.5648302396   -2.7811211217    1.4682457582
H       -0.1209768380   -1.3886488584    2.2346791506
H        3.9483405408   -1.7759970299    3.6240416008
H       -0.1072569033   -3.7417764516    6.3769246738
H        0.3155700944   -6.1176023360    5.8282732084
H       -1.7801060393   -3.1720282888    2.4537971023
H        2.4138765503   -0.6576680582    5.0211662948
H        0.4082754496   -0.2335000377    6.0532994577
29   

C        2.3665368233   -2.8756688007    0.7558142070
C        1.1397761059   -2.2297742799    0.9151884270
C        3.3044395545   -2.8398221035    1.7888691011
C        0.8467038009   -1.5625741660    2.1097194451
C        3.0092240406   -2.1707641481    2.9819708826
C       -0.2860192479   -4.0824337542    5.3888582050
C        0.0353274332   -5.4020035716    5.0621142545
C       -1.1457723114   -3.7638831860    3.1594255912
C        1.7694638624   -1.5350269365    3.1722012215
C       -0.8641239346   -3.2440851776    4.4312328967
C       -0.2184438097   -5.9113729163    3.7823852742
C       -0.8206317238   -5.0816408809    2.8196342778
C        1.4908088535   -0.8916382573    4.4613580667
C        0.3362431087   -0.7085524134    5.1266550653
O       -1.9683295829   -0.8636079391    3.7076790175
O       -2.0442455285   -1.4450044113    6.0721067484
S       -1.2625267187   -1.5088142985    4.8276569010
Cl       0.2136098148   -7.5656938904    3.4093499123
Cl      -1.1648260927   -5.6632992163    1.2048907606
H        2.5918447759   -3.3962929266   -0.1683708110
H        0.4140387089   -2.2391175794    0.1095809162
H        4.2613130265   -3.3349496858    1.6673666122
H       -0.0974671554   -1.0391978885    2.1829807279
H        3.7498254392   -2.1654953865    3.7739121814
H       -0.0847066895   -3.7074480037    6.3886254007
H        0.4887906654   -6.0449335871    5.8070043664
H       -1.6189361851   -3.1340785195    2.4112411393
H        2.3722650261   -0.5375213296    4.9862005823
H        0.3328208332   -0.0893194281    6.0108379990
29   

C        2.1200496343   -2.9628667021    0.8077642694
C        1.0734938180   -2.0426705503    0.9002504296
C        2.9596217165   -3.1692272705    1.9048964255
C        0.8578452998   -1.3431125841    2.0927729486
C        2.7462722968   -2.4634529445    3.0944104006
C       -0.2636136119   -4.0372387781    5.3840446340
C        0.1404162177   -5.3345067438    5.0587380708
C       -0.9881460196   -3.7171835686    3.1073747290
C        1.6814244415   -1.5556637811    3.2119421285
C       -0.8137225127   -3.2079306844    4.4022722014
C       -0.0031993150   -5.8305442599    3.7567480459
C       -0.5811371459   -5.0124938987    2.7696981159
C        1.4503236379   -0.8541780291    4.4870516315
C        0.2923686732   -0.6566461929    5.1360410143
O       -1.9499660915   -0.8557550410    3.6337041489
O       -2.1081051710   -1.4401641671    5.9996121584
S       -1.2801017877   -1.4855041465    4.7844352397
Cl       0.5378259267   -7.4527911171    3.3850974697
Cl      -0.7883743436   -5.5785021783    1.1261897379
H        2.2817932619   -3.5120047907   -0.1132253147
H        0.4260215803   -1.8693761494    0.0478566489
H        3.7748172195   -3.8805856055    1.8351795978
H        0.0491124439   -0.6215330071    2.1373784800
H        3.4027159771   -2.6421673552    3.9385895933
H       -0.1419014059   -3.6698642218    6.3993675326
H        0.5759527981   -5.9691195920    5.8212333721
H       -1.4323762408   -3.0922559907    2.3377254535
H        2.3446290310   -0.5216283859    5.0041356481
H        0.2665843278   -0.0297613232    6.0142553097
29   

C        2.0209846611   -2.9779177584    0.8329864576
C        1.1113941169   -1.9175482916    0.8655146292
C        2.7467453352   -3.3050867408    1.9815409085
C        0.9200584754   -1.1942870457    2.0480045003
C        2.5583409144   -2.5763703980    3.1613950042
C       -0.2694111797   -4.0090804069    5.3802665092
C        0.1551615403   -5.3037192917    5.0701551873
C       -0.9163640335   -3.6953500014    3.0791186840
C        1.6295380704   -1.5256280174    3.2132946678
C       -0.7917869127   -3.1844568374    4.3792858226
C        0.0573873032   -5.8026736076    3.7650361328
C       -0.4932204043   -4.9900306065    2.7581175602
C        1.4232965841   -0.7666093958    4.4665115469
C        0.2768085410   -0.6301812098    5.1448541026
O       -1.9034347897   -0.8369342511    3.5614489255
O       -2.1521470785   -1.4168480024    5.9238808900
S       -1.2795987276   -1.4626291874    4.7401603433
Cl       0.6222700208   -7.4213728323    3.4137056626
Cl      -0.6458691484   -5.5622115737    1.1106837896
H        2.1630017212   -3.5448271499   -0.0804663025
H        0.5500133532   -1.6554954854   -0.0244269490
H        3.4532294117   -4.1271341709    1.9587021893
H        0.2105850725   -0.3725337727    2.0587688111
H        3.1244309837   -2.8437928128    4.0464927246
H       -0.1835830525   -3.6396601993    6.3984940813
H        0.5705845948   -5.9342379339    5.8472037093
H       -1.3331657169   -3.0717741861    2.2931551203
H        2.3186966758   -0.3770077039    4.9399815277
H        0.2399718554   -0.0296205085    6.0407816485
29   

C        1.9874175441   -3.0003514423    0.8745150830
C        1.1729493596   -1.8650581678    0.8371464015
C        2.6058761395   -3.3719569543    2.0715385952
C        0.9729124730   -1.1076883991    1.9966991920
C        2.4057449073   -2.6112978684    3.2290355879
C       -0.2600925852   -4.0229841988    5.3990051500
C        0.1633918954   -5.3144603219    5.0735828109
C       -0.9072016018   -3.6820009117    3.1013467781
C        1.5741603006   -1.4811642216    3.2071219398
C       -0.7828980457   -3.1866552648    4.4077814182
C        0.0622167853   -5.7991741488    3.7633052843
C       -0.4887849775   -4.9748272089    2.7661610644
C        1.3733435136   -0.6667190348    4.4319323276
C        0.2687478577   -0.6225120063    5.1838498702
O       -1.9159931140   -0.8425009662    3.6172684270
O       -2.1440977384   -1.4425488234    5.9781369932
S       -1.2798098529   -1.4713237185    4.7877111228
Cl       0.6240693964   -7.4147799030    3.3932058390
Cl      -0.6474374146   -5.5303745918    1.1135210902
H        2.1375074252   -3.5919976601   -0.0218066886
H        0.6924349910   -1.5713469311   -0.0894624879
H        3.2373269619   -4.2526646701    2.1035659607
H        0.3339067828   -0.2306893643    1.9593024247
H        2.8886774699   -2.9101204254    4.1525199696
H       -0.1740888365   -3.6657590294    6.4215721121
H        0.5792667507   -5.9543171711    5.8427792186
H       -1.3212008737   -3.0477872967    2.3223186387
H        2.2515847146   -0.1575649630    4.8155739346
H        0.2458649669   -0.0465845361    6.0961996807
29   

C        2.0008782257   -3.1045979587    0.9056339845
C        1.2681994765   -1.9229038726    0.7620575684
C        2.5022278986   -3.4623486509    2.1601607347
C        1.0360326527   -1.1028048521    1.8720927091
C        2.2661487462   -2.6412728483    3.2684748029
C       -0.2207356313   -4.0657481366    5.3690327397
C        0.1883894500   -5.3473683340    4.9895398179
C       -0.9545804342   -3.6573843530    3.1082353350
C        1.5203713477   -1.4595771127    3.1377556883
C       -0.7797994451   -3.2005960111    4.4230961139
C        0.0354101994   -5.7937289511    3.6705210227
C       -0.5527787252   -4.9405686601    2.7199207965
C        1.2976309745   -0.5725293548    4.3104135501
C        0.2614730286   -0.5972849427    5.1532333188
O       -2.0314673981   -0.8788823359    3.7707717393
O       -2.0448362427   -1.5168682492    6.1299562910
S       -1.2802177655   -1.5036124872    4.8727562926
Cl       0.5799872238   -7.3979502549    3.2316134989
Cl      -0.7778275573   -5.4482045235    1.0595490760
H        2.1776564152   -3.7431527544    0.0471618068
H        0.8778779119   -1.6413492275   -0.2095848469
H        3.0696777584   -4.3789640339    2.2750754692
H        0.4636492861   -0.1884363569    1.7525359239
H        2.6586198254   -2.9279752929    4.2375457471
H       -0.0985191765   -3.7398043103    6.3984292206
H        0.6316853909   -6.0103085349    5.7230890617
H       -1.3981192987   -3.0006727860    2.3648406736
H        2.1082884929    0.1095244200    4.5459245265
H        0.2687854100    0.0038678013    6.0494556658
29   

C        3.0349360166   -3.5152459575    2.1410921768
C        1.9431755812   -3.0684833032    1.3899589556
C        3.3210253409   -2.9209126161    3.3742499916
C        1.1432099450   -2.0243885056    1.8682491589
C        2.5189017727   -1.8790041512    3.8530743588
C        0.1962006847   -4.2880835018    4.3855043351
C        0.1131048698   -5.3007932682    3.4293552355
C       -1.8098592795   -3.2957255528    3.4888044247
C        1.4311536507   -1.4136391991    3.0994111207
C       -0.7574985673   -3.2649358666    4.4139098778
C       -0.9187114632   -5.3152775283    2.4845605728
C       -1.8957818870   -4.3026303298    2.5177150105
C        0.5522199119   -0.3315478905    3.6110391879
C       -0.3455938780   -0.4263983433    4.5971876953
O       -1.8624943605   -1.7344608936    6.3626948654
O        0.5498774311   -2.1141404160    6.5033450373
S       -0.6061241764   -1.8994495974    5.6153833827
Cl      -0.9669137633   -6.5848992371    1.2811162987
Cl      -3.2067049026   -4.2720298859    1.3584985712
H        3.6560491865   -4.3227402529    1.7696805515
H        1.7125278483   -3.5338515068    0.4381967282
H        4.1627798750   -3.2672203257    3.9635582620
H        0.2923887257   -1.6936196951    1.2829769670
H        2.7382974826   -1.4320135348    4.8179326133
H        1.0161154998   -4.2854367424    5.0993809207
H        0.8654170963   -6.0800755114    3.4099725786
H       -2.5686226014   -2.5192155392    3.5088610368
H        0.5569706952    0.5917424802    3.0406828246
H       -0.9805477802    0.4101058015    4.8458347967
29   

C        3.0799948990   -3.5025375566    2.1267462133
C        2.0582946057   -3.0169431956    1.3050049481
C        3.2537511204   -2.9708294637    3.4080229198
C        1.2137728298   -1.9989771614    1.7625588275
C        2.4052086954   -1.9575779170    3.8675262785
C        0.1762328677   -4.3086852563    4.4129487815
C        0.0872421801   -5.3169427559    3.4526813210
C       -1.8240547237   -3.3015059421    3.5205482656
C        1.3783338008   -1.4600618123    3.0493728685
C       -0.7699363754   -3.2786386104    4.4436099030
C       -0.9458496009   -5.3226608077    2.5091312463
C       -1.9178985173   -4.3054948105    2.5475920806
C        0.4625115355   -0.3997601923    3.5265953024
C       -0.3440239897   -0.4472087316    4.5943177991
O       -1.8525503827   -1.7263925719    6.3892531499
O        0.5579061354   -2.1186797999    6.5177927298
S       -0.6024482843   -1.9061353454    5.6350506551
Cl      -1.0024212009   -6.5875336308    1.3010862368
Cl      -3.2314478898   -4.2645096015    1.3916938986
H        3.7366567898   -4.2885580574    1.7707137348
H        1.9184786494   -3.4303074793    0.3124489898
H        4.0460253873   -3.3414625737    4.0489020416
H        0.4208685993   -1.6361609475    1.1179697565
H        2.5486010210   -1.5534889607    4.8650153889
H        0.9965808335   -4.3135234581    5.1262520499
H        0.8355895143   -6.0999251830    3.4290034344
H       -2.5771260713   -2.5195449386    3.5426519000
H        0.3552190188    0.4620827295    2.8758102422
H       -0.9511500619    0.4044032173    4.8607161898
29   

C        3.1689465916   -3.4158308707    2.0462331847
C        2.2470920874   -2.8246831096    1.1776742284
C        3.2050532749   -3.0293509760    3.3887705802
C        1.3589735640   -1.8526162543    1.6520216687
C        2.3131693197   -2.0620431961    3.8646471001
C        0.1131418017   -4.3359748676    4.4587776142
C        0.0098295687   -5.3603558353    3.5171270133
C       -1.8622978948   -3.3077833301    3.5357799620
C        1.3698433411   -1.4732091673    3.0057975980
C       -0.8131281324   -3.2874402294    4.4642721055
C       -1.0200161346   -5.3657355240    2.5698383843
C       -1.9721242000   -4.3293302993    2.5833504013
C        0.4228466449   -0.4465999240    3.4780043970
C       -0.3341251942   -0.4599271462    4.5854622072
O       -1.8963331415   -1.6879743706    6.3685874523
O        0.4997050036   -2.1272791130    6.5482460777
S       -0.6372526559   -1.9021023932    5.6388845713
Cl      -1.0996635126   -6.6563201943    1.3905751087
Cl      -3.2826217510   -4.2881774009    1.4239714068
H        3.8593391869   -4.1664075117    1.6776868203
H        2.2203540449   -3.1191578074    0.1345264353
H        3.9283134838   -3.4733890621    4.0636659798
H        0.6486215002   -1.4046811324    0.9660173565
H        2.3708087201   -1.7594041558    4.9048914960
H        0.9269520556   -4.3457246170    5.1794723142
H        0.7418358898   -6.1590504556    3.5129975078
H       -2.6012761317   -2.5121739030    3.5400050821
H        0.2611990119    0.3873903541    2.8025818692
H       -0.9102382042    0.4109998008    4.8584911431
29   

C        3.2150493318   -3.2063821299    1.8146983077
C        2.4537223268   -2.3918973143    0.9729653366
C        3.0626787498   -3.1068685758    3.1996481257
C        1.5313385569   -1.4898784386    1.5150425883
C        2.1396934033   -2.2064747987    3.7427216386
C       -0.0128552019   -4.4295135781    4.7469967914
C       -0.0996695340   -5.5370011600    3.9023133629
C       -1.7679408816   -3.3538795428    3.4915066713
C        1.3408195966   -1.4058988107    2.9079785998
C       -0.8395069952   -3.3194420109    4.5406056151
C       -1.0113846236   -5.5630457906    2.8408221298
C       -1.8582889617   -4.4581899196    2.6345057995
C        0.3671113208   -0.4334560458    3.4188229611
C       -0.4028945394   -0.4581983779    4.5205270722
O       -1.9937778683   -1.6287038908    6.3119729437
O        0.3923035890   -2.0198713909    6.5865670963
S       -0.7132749559   -1.8592906491    5.6265416595
Cl      -1.0804050656   -6.9666549199    1.7977440436
Cl      -3.0189951062   -4.4383426781    1.3245995532
H        3.9300857099   -3.9052251945    1.3949598010
H        2.5783692670   -2.4589340084   -0.1020018244
H        3.6684372962   -3.7199631239    3.8573715073
H        0.9505182624   -0.8668315666    0.8439728510
H        2.0778736635   -2.1218380565    4.8199869973
H        0.7024156420   -4.4298704288    5.5658658255
H        0.5480177079   -6.3896791627    4.0679400649
H       -2.4306239858   -2.5095439422    3.3285086090
H        0.2042641259    0.4250071527    2.7749845129
H       -0.9893702109    0.4122870066    4.7728653558
29   

C        3.4620707993   -3.0065233764    1.7369229540
C        2.7925324133   -2.0836190255    0.9314268254
C        3.1263360062   -3.1172966583    3.0875082292
C        1.7791146221   -1.2848498101    1.4726140760
C        2.1128951822   -2.3193097355    3.6298265337
C       -0.0948378675   -4.4990426546    4.8131097141
C       -0.2639740176   -5.6467841016    4.0369149085
C       -1.8964631676   -3.4403529428    3.6100249279
C        1.4007154955   -1.4117926201    2.8253416686
C       -0.9041048514   -3.3777303486    4.5976839207
C       -1.2427236417   -5.7030262102    3.0378493452
C       -2.0710549624   -4.5858848009    2.8232694865
C        0.3485800079   -0.5186111927    3.3172241204
C       -0.4185660792   -0.5318434065    4.4236353826
O       -1.9391840922   -1.5880224207    6.3384555989
O        0.4474115942   -2.0146354641    6.5273897080
S       -0.6950288989   -1.8740289039    5.6085685978
Cl      -1.4191403874   -7.1597826867    2.0840023097
Cl      -3.3156209343   -4.6031957127    1.5925689295
H        4.2484248184   -3.6252330761    1.3189251144
H        3.0600570150   -1.9848848058   -0.1146524658
H        3.6620938694   -3.8133861943    3.7230008775
H        1.2775889541   -0.5739743442    0.8253130631
H        1.9268665653   -2.4022729545    4.6894619454
H        0.6660125400   -4.4803576741    5.5896449060
H        0.3683811062   -6.5095539397    4.2098810086
H       -2.5484908742   -2.5881554726    3.4441826799
H        0.1412864670    0.3219394647    2.6626947565
H       -1.0366737948    0.3280665485    4.6336440831
29   

C        2.4745839370   -3.0687439887    0.1960150216
C        3.2869202062   -2.1549219167    0.8681619170
C        1.1476596076   -3.2354088527    0.5942751679
C        2.7752897848   -1.4186723338    1.9424313075
C        0.6346480303   -2.4991535793    1.6680051652
C       -0.3630711771   -3.5505178320    5.8165725421
C        0.0838947405   -4.8344076806    6.1365613148
C       -1.3061744125   -4.4104931096    3.7710085828
C        1.4434006004   -1.5927882359    2.3768946470
C       -1.0500733934   -3.3227616870    4.6195262745
C       -0.1506972809   -5.9149709602    5.2778123835
C       -0.8579169796   -5.7002549697    4.0808557951
C        1.0039482807   -0.7582949509    3.4965637351
C       -0.1472019334   -0.6230432418    4.1848405518
O       -2.3127491638   -1.6416311679    2.8825434879
O       -2.5232243074   -1.1545109459    5.2592967823
S       -1.6402239858   -1.6491597101    4.1922130686
Cl       0.4321683879   -7.5067176088    5.7137108836
Cl      -1.1892026905   -7.0154253323    2.9742224228
H        2.8683869034   -3.6395668820   -0.6376347847
H        4.3153580925   -2.0141953233    0.5550495945
H        0.5068893946   -3.9304663235    0.0631634632
H        3.4317993385   -0.7137034600    2.4401332205
H       -0.4045729143   -2.6437591833    1.9028609779
H       -0.1778338521   -2.7289822892    6.5031785196
H        0.6186131647   -5.0021666433    7.0640682725
H       -1.8675376203   -4.2607791490    2.8527082933
H        1.7612129561   -0.0578196107    3.8333892112
H       -0.2240037094    0.1910018610    4.8898403941
