30   

C       -1.4854496544    0.9634569762    0.9076648415
C       -1.2341565882   -0.2557730019    1.5397196340
C       -0.5037058117    1.5386456575    0.0991574340
C        5.5528355569    1.2263096288   -1.2597804676
C       -0.0016993567   -0.8969106170    1.3688503563
C        0.7285132772    0.8985446052   -0.0723264021
C        5.1995652891    0.0113284612   -1.8384494511
C        4.8896724238    1.6546003739   -0.1147636459
C        1.0067420072   -0.3261700446    0.5726806518
C        3.4642495892   -0.3164043582   -0.1651246874
C        4.1827640003   -0.7788850032   -1.2957702932
C        3.8575028241    0.8967287120    0.4419743415
C        2.2913810884   -1.0575555883    0.3842140039
C        3.8259363498   -3.1611583870   -1.1471085275
C        3.5598033614   -3.1145705951    0.3600485523
N        2.3393171069   -2.3409428253    0.6754395554
N        3.9382354517   -2.0142884197   -1.8967849553
O        3.9824478277   -4.2220751675   -1.7310546075
F        3.2554269838    1.3460256270    1.5678909359
H       -2.4412433865    1.4580466942    1.0395461082
H       -1.9960911545   -0.7101709524    2.1628122685
H       -0.6985470338    2.4799548475   -0.4020480623
H        6.3487013306    1.8259583169   -1.6892912852
H        0.1592921047   -1.8455300330    1.8701540633
H        1.4601590438    1.3604467420   -0.7250841809
H        5.7387435845   -0.3302956986   -2.7145526856
H        5.1701039907    2.5883986945    0.3580412580
H        3.4378081431   -4.1412079564    0.7163536742
H        4.4288073837   -2.6890522488    0.8697743744
H        4.2578055002   -2.1997577953   -2.8387604140
30   

C       -1.4479567016    1.0163146210    0.9392904852
C       -1.1304369996   -0.1085336764    1.7044524299
C       -0.5603878142    1.4587881592   -0.0441766743
C        5.5529696357    1.2402756061   -1.1688076139
C        0.0729570879   -0.7897681393    1.4875012855
C        0.6425579088    0.7778032640   -0.2605654741
C        5.2415843371    0.0296099719   -1.7791362707
C        4.8295066312    1.6471574133   -0.0532962951
C        0.9777853201   -0.3570938044    0.5053286860
C        3.4370081711   -0.3438618499   -0.1901524682
C        4.2097049597   -0.7797012518   -1.2961179382
C        3.7816769265    0.8705277512    0.4450477737
C        2.2481215831   -1.1034158293    0.2910800637
C        3.8355683698   -3.1682462761   -1.2352281190
C        3.4986721515   -3.1685023471    0.2576073687
N        2.2729852409   -2.3937338941    0.5478947850
N        3.9980394681   -1.9997425242   -1.9402434773
O        4.0098047208   -4.2111107133   -1.8459847116
F        3.1218680487    1.3034412657    1.5447164556
H       -2.3811000713    1.5423251461    1.1068893421
H       -1.8174070391   -0.4568560344    2.4673166889
H       -0.8048846946    2.3290111393   -0.6426238290
H        6.3606993442    1.8548959352   -1.5525382893
H        0.2991933215   -1.6620182299    2.0918488927
H        1.3134055157    1.1322467353   -1.0353745005
H        5.8234836140   -0.2919055226   -2.6352813431
H        5.0738280474    2.5793752962    0.4421041662
H        3.3520323684   -4.2052822202    0.5729378790
H        4.3474182750   -2.7696568656    0.8202498935
H        4.3615301871   -2.1589749829   -2.8710542900
30   

C       -1.4080196934    1.0523478004    0.9474830818
C       -0.9993840229    0.0430000067    1.8235619927
C       -0.6373294556    1.3465880001   -0.1803385807
C        5.5647431723    1.2492398328   -1.0697715549
C        0.1766908086   -0.6726767159    1.5705439685
C        0.5382038308    0.6303893352   -0.4314264136
C        5.2886596366    0.0489617106   -1.7159581431
C        4.7894243658    1.6307210128    0.0191626086
C        0.9550072189   -0.3946449240    0.4381513116
C        3.4220056168   -0.3697718904   -0.2112912901
C        4.2425910797   -0.7763596801   -1.2943038372
C        3.7269024117    0.8380621220    0.4574801235
C        2.2192823203   -1.1462883211    0.2003763477
C        3.8577869819   -3.1673722709   -1.3252331500
C        3.4581687892   -3.2159916720    0.1506817386
N        2.2274610749   -2.4423651009    0.4212999716
N        4.0611384592   -1.9776572302   -1.9819778641
O        4.0499600907   -4.1901887308   -1.9638165846
F        3.0181545588    1.2502443548    1.5343559808
H       -2.3195858447    1.6058049065    1.1430524108
H       -1.5931742105   -0.1870676290    2.7008615185
H       -0.9498529113    2.1302199920   -0.8611099137
H        6.3834914439    1.8767094810   -1.4064251368
H        0.4846194113   -1.4526878332    2.2589334342
H        1.1292070648    0.8694830662   -1.3088874897
H        5.9080328598   -0.2505286747   -2.5535837791
H        5.0035650049    2.5560940426    0.5406419373
H        3.2922281224   -4.2619416591    0.4233150198
H        4.2859739671   -2.8440970962    0.7609335872
H        4.4643680976   -2.1090526889   -2.9007114919
30   

C       -1.3746514778    1.0758045721    0.9324058554
C       -0.8515928046    0.2233016808    1.9089081774
C       -0.7361988285    1.1874669864   -0.3057866780
C        5.5859744339    1.2530609746   -0.9538268063
C        0.3055413916   -0.5188820414    1.6451010390
C        0.4204532485    0.4442042964   -0.5661711143
C        5.3296189620    0.0716231781   -1.6408521373
C        4.7787831796    1.6039730842    0.1217446164
C        0.9461565219   -0.4278208822    0.4029578978
C        3.4219240389   -0.3918800853   -0.2007514707
C        4.2726854384   -0.7654884400   -1.2729909962
C        3.7050634203    0.7992552246    0.5078701870
C        2.2093964419   -1.1829946519    0.1494472314
C        3.8785600738   -3.1541958910   -1.4019698519
C        3.4354037316   -3.2565768187    0.0583517008
N        2.2028350668   -2.4848504908    0.3249489678
N        4.1090551876   -1.9421829422   -2.0066541938
O        4.0822827964   -4.1531106968   -2.0738964020
F        2.9680322261    1.1848785449    1.5751666076
H       -2.2711414231    1.6505603537    1.1360416632
H       -1.3408634115    0.1370211067    2.8723941689
H       -1.1355492754    1.8513913810   -1.0640358359
H        6.4129769287    1.8902802666   -1.2494474985
H        0.7086348805   -1.1750341889    2.4091235758
H        0.9148667648    0.5426024249   -1.5265200440
H        5.9721421040   -0.2029846451   -2.4695049669
H        4.9760175441    2.5153387370    0.6736342633
H        3.2548048875   -4.3110159895    0.2851797422
H        4.2477477704   -2.9151177934    0.7059850769
H        4.5385338512   -2.0421879823   -2.9174259073
30   

C       -1.3916775711    1.0869787673    0.8892940069
C       -0.7309605104    0.4670978269    1.9534269763
C       -0.8886674897    0.9585195137   -0.4079758342
C        5.6274700538    1.2245429228   -0.8277635477
C        0.4282221942   -0.2815938622    1.7183203077
C        0.2705476669    0.2090764800   -0.6375329346
C        5.3444619918    0.0817796063   -1.5668217035
C        4.8311092714    1.5415940572    0.2657062893
C        0.9367403781   -0.4283160278    0.4227237435
C        3.4308166150   -0.4093865093   -0.1413538925
C        4.2715070614   -0.7493706435   -1.2335837356
C        3.7417598401    0.7426650096    0.6189769585
C        2.2006859716   -1.1926485338    0.1667090963
C        3.8312839183   -3.1212432841   -1.4766306380
C        3.3800951395   -3.2848888240   -0.0245679356
N        2.1621536833   -2.5007879275    0.2705529235
N        4.0823494407   -1.8858078381   -2.0227714246
O        4.0180397996   -4.0901705556   -2.1957423136
F        3.0205464182    1.0968931082    1.7064060471
H       -2.2901847826    1.6662965902    1.0698187964
H       -1.1153221226    0.5659183106    2.9622006769
H       -1.3955290576    1.4397114439   -1.2367088689
H        6.4661277315    1.8579844219   -1.0975001858
H        0.9371390462   -0.7580792097    2.5491850290
H        0.6582333352    0.1178485882   -1.6463833849
H        5.9781053762   -0.1669357308   -2.4103400079
H        5.0489250248    2.4225998445    0.8576809878
H        3.1761411689   -4.3449151658    0.1505232922
H        4.1958545478   -2.9913651526    0.6419643754
H        4.5098130992   -1.9500424754   -2.9377093157
30   

C       -1.2749172374    0.7195762982    0.6763968897
C       -0.4807090979    0.4407226680    1.7910274665
C       -0.8366928207    0.3437832338   -0.5949561048
C        5.8629401773    1.3333159265   -0.7000653274
C        0.7486887373   -0.2099599020    1.6321441983
C        0.3933072026   -0.3055743187   -0.7464269324
C        5.5994203797    0.2441960242   -1.5210353507
C        5.0835580761    1.5337792191    0.4315782832
C        1.2052906993   -0.5911517019    0.3652192855
C        3.7296417080   -0.4215961943   -0.1028574088
C        4.5609082295   -0.6454844553   -1.2335427605
C        4.0275494978    0.6743620776    0.7422024436
C        2.5272318271   -1.2719643713    0.1447278193
C        4.2256311917   -3.0085349576   -1.6420396743
C        3.7892461040   -3.2941871123   -0.2044857159
N        2.5376968562   -2.5846372596    0.1340295563
N        4.3994505852   -1.7260518179   -2.1034188526
O        4.4562694587   -3.9142215119   -2.4277863705
F        3.3335547991    0.9184133015    1.8739182003
H       -2.2284631834    1.2210981774    0.7978634201
H       -0.8185074327    0.7235451841    2.7815121333
H       -1.4493083892    0.5528378033   -1.4646074192
H        6.6746662581    2.0138583438   -0.9352458361
H        1.3423306855   -0.4372393009    2.5104426879
H        0.7251298557   -0.5954739750   -1.7376562625
H        6.2221666466    0.0834201717   -2.3935177865
H        5.2893008613    2.3702920034    1.0888249590
H        3.6313795558   -4.3715891876   -0.1036273981
H        4.5920046023   -3.0105021356    0.4818090775
H        4.8163817635   -1.7047165990   -3.0251826754
30   

C       -1.3051611156    0.6953302300    0.5625808086
C       -0.4303057318    0.7247489463    1.6494538753
C       -0.9341119145    0.0198659539   -0.5996823502
C        5.9230808909    1.3024173448   -0.5798965229
C        0.8148485308    0.0883425282    1.5708807315
C        0.3112416513   -0.6123689601   -0.6717404021
C        5.5590143429    0.3103056254   -1.4807244281
C        5.2456550993    1.4014520420    0.6281010574
C        1.2153879045   -0.5823349093    0.4074991836
C        3.7654880521   -0.4308156642    0.0001048458
C        4.5119771560   -0.5713174694   -1.2010169098
C        4.1846278392    0.5459018632    0.9340781292
C        2.5418808964   -1.2651962186    0.2249849833
C        4.1328262150   -2.8918802801   -1.7479465544
C        3.7603263681   -3.2714686754   -0.3124294933
N        2.5287145507   -2.5739395247    0.1134393112
N        4.2694075785   -1.5797057024   -2.1362034215
O        4.3268438591   -3.7442783786   -2.6004001604
F        3.6198624441    0.6665328643    2.1514672408
H       -2.2706351337    1.1848094834    0.6244528188
H       -0.7210832380    1.2309860636    2.5629283945
H       -1.6100844553   -0.0179146976   -1.4464255831
H        6.7400597497    1.9787287062   -0.8090458841
H        1.4303381502    0.0886771261    2.4587707449
H        0.5872101303   -1.1362423190   -1.5809639457
H        6.1125152020    0.2151431055   -2.4077987791
H        5.5406996740    2.1511302166    1.3526511744
H        3.5958451578   -4.3519329155   -0.2748279403
H        4.5930166115   -3.0368092124    0.3566226588
H        4.6342085575   -1.4980926527   -3.0764900610
30   

C       -1.3625088938    0.6233423124    0.5240597402
C       -0.3881175696    0.9395206637    1.4703367909
C       -1.0663488061   -0.2914054615   -0.4843306491
C        5.9468423392    1.3164322264   -0.4267223629
C        0.8805870571    0.3491092431    1.4055235977
C        0.2015117712   -0.8777169366   -0.5442844975
C        5.5133829778    0.4476387873   -1.4217473164
C        5.3468354134    1.2665824662    0.8267375088
C        1.2103537855   -0.5631871582    0.3913634498
C        3.7753018618   -0.4187882330    0.0482782042
C        4.4619223628   -0.4423222466   -1.1911358248
C        4.2842844761    0.3958270894    1.0824581950
C        2.5378759208   -1.2458880739    0.2399356253
C        4.0633446492   -2.7106973084   -1.8922527986
C        3.7487706780   -3.1995614410   -0.4722569952
N        2.5262810973   -2.5458536044    0.0429014211
N        4.1712919058   -1.3707203642   -2.1925703819
O        4.2301327955   -3.4983962181   -2.8102366600
F        3.8123721414    0.3195772700    2.3448001579
H       -2.3445888864    1.0798813001    0.5757395725
H       -0.6164606928    1.6415533903    2.2642726163
H       -1.8176880560   -0.5514617330   -1.2213779857
H        6.7668220666    2.0011556061   -0.6168992748
H        1.5747777191    0.6201617108    2.1833148305
H        0.4101447100   -1.5907013687   -1.3353613308
H        6.0202600057    0.4488320422   -2.3798411451
H        5.7099854328    1.9023590155    1.6253860269
H        3.5939149926   -4.2815464530   -0.5068897903
H        4.6031091577   -3.0056806180    0.1825787874
H        4.4988628384   -1.2184202660   -3.1377161493
30   

C       -1.3953840735    0.5925439225    0.5638238178
C       -0.3302352929    1.1088879764    1.2999667878
C       -1.1811347026   -0.4974081207   -0.2763564351
C        5.9682367963    1.3169304156   -0.2931119368
C        0.9455428988    0.5403426082    1.1948234301
C        0.0938543668   -1.0624114286   -0.3772738242
C        5.5344095233    0.5144054782   -1.3435631737
C        5.3546231637    1.2007044366    0.9505769039
C        1.1951930337   -0.5529891977    0.3490428314
C        3.7675022691   -0.4052246380    0.0524995867
C        4.4685577512   -0.3724481707   -1.1760301528
C        4.2765556152    0.3322964835    1.1412332766
C        2.5225424563   -1.2307163947    0.1990942365
C        4.0686037092   -2.6046112371   -1.9747992549
C        3.7524361697   -3.1510448923   -0.5747126488
N        2.5242452319   -2.5254250265   -0.0369213078
N        4.1827792545   -1.2533611730   -2.2201465400
O        4.2368901853   -3.3552800436   -2.9230887421
F        3.7789200727    0.1807464295    2.3896761546
H       -2.3825248614    1.0335997790    0.6451178728
H       -0.4908708335    1.9559768825    1.9572008851
H       -2.0019191446   -0.9105718703   -0.8516897400
H        6.8004194485    1.9989144905   -0.4337455249
H        1.7216074566    0.9975604399    1.7868067375
H        0.2275002062   -1.9128751971   -1.0378661704
H        6.0538990854    0.5616285229   -2.2937169401
H        5.7191489796    1.7804811211    1.7901746712
H        3.6042133507   -4.2317049758   -0.6524562017
H        4.6038622547   -2.9790513356    0.0899756319
H        4.5168881100   -1.0619796633   -3.1558355110
30   

C       -1.4013460102    0.6020698338    0.6177994523
C       -0.2712514656    1.2484955677    1.1151513202
C       -1.2580971271   -0.6192116221   -0.0359370100
C        5.9829393166    1.3016238929   -0.1745743250
C        0.9979020472    0.6771238559    0.9595581623
C        0.0105147078   -1.1873411004   -0.1882292260
C        5.5796049378    0.5336740099   -1.2628597365
C        5.3173629639    1.1646530448    1.0401716418
C        1.1767213221   -0.5509647835    0.3009932529
C        3.7504551548   -0.3999427001    0.0392127777
C        4.4971496765   -0.3432091028   -1.1608125178
C        4.2208436194    0.3077771897    1.1644246059
C        2.5016625607   -1.2251632483    0.1332735185
C        4.1046176042   -2.5465404327   -2.0356938715
C        3.7521176905   -3.1282378579   -0.6588439922
N        2.5127350744   -2.5148090776   -0.1321465548
N        4.2388702728   -1.1905114526   -2.2388224859
O        4.2928099051   -3.2722649617   -2.9995574704
F        3.6488381733    0.1502397686    2.3812430659
H       -2.3835153997    1.0454657294    0.7375041922
H       -0.3756424625    2.2009419577    1.6223543874
H       -2.1295588622   -1.1324432538   -0.4265157306
H        6.8291171717    1.9749400866   -0.2643956372
H        1.8282619045    1.2454603836    1.3499595514
H        0.0807261461   -2.1413338860   -0.7002585414
H        6.1360170450    0.5992846543   -2.1907744871
H        5.6523779757    1.7211212682    1.9074275431
H        3.6040526890   -4.2060787041   -0.7690383849
H        4.5876413061   -2.9766135515    0.0304970961
H        4.6018507417   -0.9749334681   -3.1583576334
30   

C       -1.3883054354    0.6303816894    0.6684342225
C       -0.2218460219    1.3520085021    0.9164629932
C       -1.2969222139   -0.6830131520    0.2135499698
C        5.9871164367    1.2652445341   -0.0644505983
C        1.0321794345    0.7632588111    0.7118254896
C       -0.0433015905   -1.2687769306    0.0110984845
C        5.6288852001    0.5164345880   -1.1815424890
C        5.2559186593    1.1277191646    1.1116155925
C        1.1572832009   -0.5583686788    0.2527167738
C        3.7284524726   -0.4144806634    0.0166424526
C        4.5319506991   -0.3479800311   -1.1462783890
C        4.1434907782    0.2849391279    1.1693195307
C        2.4754256581   -1.2336682763    0.0526186938
C        4.1432380325   -2.5223289923   -2.0948394311
C        3.7323961072   -3.1320832891   -0.7477994160
N        2.4839596233   -2.5162821039   -0.2460087376
N        4.3106681549   -1.1650821843   -2.2551506290
O        4.3575591136   -3.2261345691   -3.0694413488
F        3.4859946522    0.1475786778    2.3448119107
H       -2.3589214439    1.0871244859    0.8261505430
H       -0.2865278575    2.3762979120    1.2656485520
H       -2.1972695334   -1.2541270190    0.0171046642
H        6.8452121508    1.9283060461   -0.1030101163
H        1.8928856249    1.3894690578    0.8988862187
H       -0.0149179970   -2.2950594396   -0.3395323063
H        6.2308088988    0.5885059809   -2.0801230671
H        5.5480804662    1.6759655894    1.9994095460
H        3.5745251667   -4.2046225688   -0.8910531268
H        4.5450275188   -3.0100410446   -0.0260195674
H        4.7143403574   -0.9317745645   -3.1531535648
30   

C       -1.3666754665    0.6558655430    0.7264520629
C       -0.1966050973    1.4144007099    0.7282205102
C       -1.2970179235   -0.7120772319    0.4692624467
C        5.9774100813    1.2272845832    0.0311075476
C        1.0397534285    0.8075293991    0.4757963760
C       -0.0606965203   -1.3159278881    0.2182129291
C        5.6694265743    0.4891365671   -1.1077300378
C        5.1817346561    1.0958376115    1.1648332558
C        1.1405478513   -0.5688355882    0.2159807932
C        3.7055330177   -0.4373717280   -0.0122069439
C        4.5638132498   -0.3647566887   -1.1360101405
C        4.0597434408    0.2642999701    1.1603424733
C        2.4475223083   -1.2448981690   -0.0352086912
C        4.1704814277   -2.5062135410   -2.1634553929
C        3.6947347059   -3.1441375078   -0.8530102177
N        2.4432282983   -2.5174969399   -0.3735287921
N        4.3811215556   -1.1509839723   -2.2739576104
O        4.4066296207   -3.1859349347   -3.1500155905
F        3.3293372343    0.1457699240    2.2938345609
H       -2.3240178942    1.1262213618    0.9209568596
H       -0.2455320403    2.4800116780    0.9214090764
H       -2.2007815607   -1.3108618107    0.4642286098
H        6.8428555418    1.8817964530    0.0410448529
H        1.9088944296    1.4523310845    0.4651589928
H       -0.0443421190   -2.3835744321    0.0261719017
H        6.3155495053    0.5642407892   -1.9748278598
H        5.4284341171    1.6419976111    2.0676124079
H        3.5193112221   -4.2080823786   -1.0347825396
H        4.4830554700   -3.0626966738   -0.0992970470
H        4.8270606897   -0.9016412415   -3.1473337664
30   

C       -1.3429743512    0.6747019425    0.7788438619
C       -0.2022164709    1.4436071365    0.5455430493
C       -1.2602965362   -0.7161632585    0.7161044218
C        5.9605388793    1.1976762556    0.1148703492
C        1.0184729035    0.8235883441    0.2530448900
C       -0.0392795227   -1.3331217339    0.4242619672
C        5.6995577970    0.4684050323   -1.0410560044
C        5.1088830541    1.0719600609    1.2073482018
C        1.1291328790   -0.5746078033    0.1911146548
C        3.6845206585   -0.4559019296   -0.0397823521
C        4.5897519081   -0.3764183979   -1.1268094118
C        3.9819067128    0.2497284229    1.1470055078
C        2.4217998663   -1.2480046602   -0.1205837588
C        4.1846864403   -2.4796943273   -2.2377650370
C        3.6486950375   -3.1475974515   -0.9678257370
N        2.3993835041   -2.5080184018   -0.5008542088
N        4.4420520762   -1.1299932039   -2.2919320361
O        4.4346835743   -3.1314682842   -3.2396224897
F        3.1942200320    0.1433538354    2.2425923661
H       -2.2887789274    1.1545951536    1.0040252381
H       -0.2627908050    2.5252037724    0.5864822851
H       -2.1421461850   -1.3215649066    0.8925829259
H        6.8297524007    1.8450099260    0.1687057337
H        1.8735547004    1.4601679391    0.0585674719
H       -0.0039650127   -2.4166992875    0.3822248606
H        6.3835517735    0.5470980288   -1.8782783103
H        5.3141758760    1.6162897905    2.1215320747
H        3.4527898483   -4.1996630967   -1.1927589524
H        4.4146464275   -3.1136046499   -0.1879220327
H        4.9254155118   -0.8643402141   -3.1402510110
30   

C       -1.3258187946    0.6897532826    0.8275281847
C       -0.2425820788    1.4405038524    0.3661335361
C       -1.1988096352   -0.6934571602    0.9663571585
C        5.9463826706    1.1518969346    0.2131721909
C        0.9659650511    0.8097103227    0.0480803237
C        0.0102745379   -1.3213091461    0.6483072793
C        5.7239193291    0.4295148689   -0.9547458408
C        5.0471694444    1.0369086749    1.2675363679
C        1.1181926578   -0.5779453543    0.1932471059
C        3.6627337429   -0.4808333631   -0.0367872791
C        4.6087213705   -0.4018729540   -1.0896223105
C        3.9141332607    0.2282139222    1.1594328339
C        2.3944551000   -1.2527502402   -0.1713677642
C        4.1865382542   -2.4686313450   -2.2722606759
C        3.5941555620   -3.1580666491   -1.0407632747
N        2.3504091274   -2.5011039253   -0.5840934204
N        4.4905332428   -1.1281932186   -2.2756283049
O        4.4459791006   -3.0965847387   -3.2868099694
F        3.0802259427    0.1367987359    2.2216381130
H       -2.2627948352    1.1773229455    1.0722370657
H       -0.3394756166    2.5139143045    0.2496306044
H       -2.0374976014   -1.2837456769    1.3176781532
H        6.8199858055    1.7889925903    0.3046700829
H        1.7851464074    1.4159629729   -0.3224205273
H        0.0888488432   -2.3980525393    0.7563076312
H        6.4404175597    0.5064742038   -1.7644828537
H        5.2187320177    1.5799379455    2.1894052393
H        3.3764599529   -4.1967904278   -1.3044028561
H        4.3385516551   -3.1703025139   -0.2396773535
H        5.0080328269   -0.8527293984   -3.1003818683
30   

C       -1.3046329821    0.6989602889    0.8457332071
C       -0.3092787908    1.4099367585    0.1702007593
C       -1.0972394647   -0.6433394154    1.1725697186
C        5.9614732739    1.1062704491    0.2981798113
C        0.8932033564    0.7807096556   -0.1727417035
C        0.1057531394   -1.2697547075    0.8289734118
C        5.7649611409    0.4110741308   -0.8903529904
C        5.0254037349    0.9884173235    1.3191245462
C        1.1242359914   -0.5607883036    0.1655193635
C        3.6625071069   -0.4870004501   -0.0558214265
C        4.6411742293   -0.3982351649   -1.0784190256
C        3.8834516108    0.2011599749    1.1593806081
C        2.3878584588   -1.2329274708   -0.2481526963
C        4.2005238178   -2.4127237170   -2.3492409550
C        3.5593127909   -3.1334652565   -1.1618022894
N        2.3227951426   -2.4643635814   -0.7038323471
N        4.5443204378   -1.0836139586   -2.2907568116
O        4.4674125242   -3.0066835434   -3.3821258269
F        3.0153280482    0.1091608755    2.1937211325
H       -2.2372973458    1.1847197442    1.1097213784
H       -0.4707025995    2.4490640656   -0.0930932227
H       -1.8696282372   -1.2029321862    1.6878248787
H        6.8417093672    1.7268126461    0.4305446149
H        1.6502888499    1.3434265730   -0.7081067873
H        0.2526271789   -2.3160370346    1.0754767183
H        6.5073314702    0.4943560491   -1.6757739666
H        5.1741372715    1.5130831283    2.2554634412
H        3.3211013261   -4.1544524909   -1.4728006726
H        4.2840106517   -3.1986718023   -0.3453996745
H        5.0913878791   -0.7917866078   -3.0904439432
30   

C       -1.3150898309    0.7057049126    0.8560805834
C       -0.4309264123    1.3345404182   -0.0254430407
C       -0.9981885843   -0.5512241531    1.3786947935
C        5.9757531045    1.0336769432    0.4057143320
C        0.7711076543    0.7097294566   -0.3780236384
C        0.2041417932   -1.1732930951    1.0246651649
C        5.7914925733    0.3727485116   -0.8038404705
C        5.0139894889    0.9117912315    1.4016351180
C        1.1110176950   -0.5398070123    0.1575497092
C        3.6531758908   -0.5034982204   -0.0379993061
C        4.6554690787   -0.4071121965   -1.0374665611
C        3.8597385072    0.1531814223    1.1975257444
C        2.3687059663   -1.2163693691   -0.2797109710
C        4.1913362118   -2.3670104223   -2.3868406746
C        3.5085567299   -3.1124899671   -1.2390892812
N        2.2813702381   -2.4288238162   -0.7781080123
N        4.5695794998   -1.0511120910   -2.2733180419
O        4.4619408622   -2.9298616331   -3.4360290677
F        2.9683922923    0.0574812360    2.2113550198
H       -2.2476219677    1.1875026325    1.1276757855
H       -0.6791135947    2.3045664330   -0.4409378144
H       -1.6858781921   -1.0485631070    2.0531668453
H        6.8652584593    1.6321443535    0.5730250837
H        1.4443047090    1.2003684052   -1.0726897464
H        0.4385340686   -2.1561966752    1.4191454089
H        6.5523257311    0.4611703785   -1.5707949876
H        5.1515771573    1.4115509453    2.3531569908
H        3.2499379841   -4.1147918081   -1.5918133858
H        4.2156960176   -3.2267628374   -0.4127726028
H        5.1405718511   -0.7461989709   -3.0511086050
30   

C       -1.3380820236    0.7475585850    0.8333241271
C       -0.5734162925    1.2320261088   -0.2323595905
C       -0.9009375720   -0.3694988738    1.5512487437
C        5.9911152271    0.9683623636    0.5318685686
C        0.6306379848    0.6048018914   -0.5737384607
C        0.3028271135   -0.9947172170    1.2075533602
C        5.8052676400    0.3605433917   -0.7046401536
C        5.0193894896    0.8227412129    1.5144656110
C        1.0910485077   -0.4983622295    0.1556522339
C        3.6456737061   -0.5101658929    0.0090855299
C        4.6580371785   -0.3892653895   -0.9783584027
C        3.8538601281    0.0933530106    1.2712674112
C        2.3503728990   -1.1873814446   -0.2767086218
C        4.1722138924   -2.2801348229   -2.4165333785
C        3.4607073239   -3.0606911934   -1.3106841253
N        2.2426275018   -2.3703711151   -0.8363034905
N        4.5718735697   -0.9774291859   -2.2418926378
O        4.4438305512   -2.8014248329   -3.4867229749
F        2.9551129048   -0.0262794178    2.2750694195
H       -2.2719678714    1.2312067490    1.0968673821
H       -0.9163325890    2.0903118294   -0.7988958530
H       -1.4968250026   -0.7565937182    2.3699245979
H        6.8889472668    1.5446272232    0.7297758808
H        1.2109308388    0.9777419641   -1.4107739520
H        0.6309903854   -1.8717470607    1.7547294307
H        6.5732259153    0.4678734524   -1.4620048830
H        5.1576407275    1.2816590464    2.4862324082
H        3.1853938753   -4.0408202781   -1.7100138320
H        4.1547974589   -3.2255443783   -0.4818719642
H        5.1561359153   -0.6493654779   -3.0001606164
30   

C       -1.3592837292    0.7318281945    0.7412166996
C       -0.7068330087    0.9998997908   -0.4659974681
C       -0.8052418539   -0.1813207811    1.6432703674
C        6.0146301324    0.8814941992    0.6285562742
C        0.5047877718    0.3655113329   -0.7641132626
C        0.4053321563   -0.8158824299    1.3427804132
C        5.8049789727    0.3500783503   -0.6381855823
C        5.0630963165    0.6724411215    1.6186494287
C        1.0873620597   -0.5235980986    0.1491803092
C        3.6572194063   -0.5665734835    0.0614889492
C        4.6532723211   -0.3838353475   -0.9346529158
C        3.8929820443   -0.0423781777    1.3542807681
C        2.3549684202   -1.2225114471   -0.2563019269
C        4.1617313151   -2.1933383733   -2.4691872092
C        3.4562563717   -3.0332226970   -1.4038331437
N        2.2406257279   -2.3635776705   -0.8955478164
N        4.5483754145   -0.8970921229   -2.2291687907
O        4.4305493876   -2.6553698108   -3.5669671960
F        3.0214641061   -0.2253693365    2.3700712312
H       -2.2983179690    1.2220974084    0.9722644366
H       -1.1425820824    1.6946755326   -1.1749745680
H       -1.3169173729   -0.4050070267    2.5724221315
H        6.9154445838    1.4468001235    0.8437505325
H        0.9968043050    0.5658101274   -1.7098795802
H        0.8150294147   -1.5431783298    2.0349200678
H        6.5579892477    0.5049076738   -1.4023099297
H        5.2211191313    1.0701160846    2.6141008672
H        3.1785343286   -3.9905468233   -1.8536067991
H        4.1523901509   -3.2406757002   -0.5863818530
H        5.1221313853   -0.5236828632   -2.9743606515
30   

C       -1.3743742413    0.7201764278    0.6212146473
C       -0.8269817031    0.7176002165   -0.6641960450
C       -0.7135102254    0.0563805309    1.6581147445
C        6.0545229438    0.7935955718    0.6739233583
C        0.3906604434    0.0718642845   -0.9058593123
C        0.5029540985   -0.5923683071    1.4155291539
C        5.7823689197    0.3795632037   -0.6233673879
C        5.1635824174    0.4708194482    1.6887207562
C        1.0926369648   -0.5527874913    0.1381022851
C        3.6785600564   -0.6269425460    0.0971031487
C        4.6244266078   -0.3417357100   -0.9250507419
C        3.9881746924   -0.2346692781    1.4209643238
C        2.3643464633   -1.2594825517   -0.2413071938
C        4.1225819683   -2.0491008790   -2.5602319510
C        3.4617458055   -2.9719546070   -1.5345141770
N        2.2481124377   -2.3499954274   -0.9647122936
N        4.4683867135   -0.7556922224   -2.2495937487
O        4.3757731591   -2.4333237627   -3.6912320145
F        3.1949680940   -0.5433518115    2.4662303333
H       -2.3176094959    1.2205396150    0.8096399021
H       -1.3480043904    1.2110335845   -1.4768033993
H       -1.1510049732    0.0305481711    2.6496699509
H        6.9594266026    1.3505794789    0.8936422963
H        0.7993195929    0.0621568883   -1.9109262131
H        0.9566987344   -1.1507899293    2.2236203284
H        6.4926844202    0.6136665835   -1.4079359253
H        5.3757253944    0.7686152725    2.7087010760
H        3.1883092936   -3.9033558392   -2.0380897171
H        4.1799662211   -3.2167812266   -0.7470060018
H        5.0059827806   -0.3170757808   -2.9861487918
30   

C       -1.3457799071    0.7960250331    0.5082822566
C       -0.9576196907    0.4088691171   -0.7749736795
C       -0.5347624775    0.4817739722    1.6001697557
C        6.0158710483    0.6980364128    0.7981090424
C        0.2400330362   -0.2886128289   -0.9646328797
C        0.6642560471   -0.2163798002    1.4124874425
C        5.6760261700    0.4816798581   -0.5326810141
C        5.2211508342    0.1509173575    1.7997065915
C        1.0719711900   -0.6146682061    0.1226275039
C        3.6612515128   -0.7072596182    0.1432063242
C        4.5313102167   -0.2423404177   -0.8736555061
C        4.0626629694   -0.5657535633    1.4884966801
C        2.3452140741   -1.3322541737   -0.2156694625
C        4.0592068179   -1.8165791908   -2.6328584714
C        3.4896709126   -2.8690339539   -1.6722102155
N        2.2593781172   -2.3676770220   -1.0221634987
N        4.3262703501   -0.5284180444   -2.2246201578
O        4.2973456587   -2.0874787107   -3.7994218755
F        3.3865047006   -1.1568020991    2.4964912233
H       -2.2742329202    1.3360169240    0.6565539177
H       -1.5839601134    0.6481060018   -1.6269077773
H       -0.8365080914    0.7767872315    2.5988116113
H        6.9096386126    1.2591365557    1.0505429303
H        0.5238715519   -0.5773507171   -1.9715474181
H        1.2383363993   -0.4437213064    2.2957671779
H        6.3271464506    0.8617149466   -1.3114480320
H        5.5031923323    0.2697107618    2.8390676884
H        3.2544783920   -3.7687524948   -2.2475900481
H        4.2452997681   -3.1369884554   -0.9282465925
H        4.8088415213    0.0044115963   -2.9366848701
30   

C       -1.3582636785    0.8061164182    0.4889509809
C       -1.1130410884    0.1681754923   -0.7270749463
C       -0.3953808847    0.7619085126    1.4977193090
C        6.0116308397    0.6151561276    0.9010926794
C        0.0869787650   -0.5221218164   -0.9290982367
C        0.8067839211    0.0733051530    1.2972191129
C        5.6853278547    0.4838867680   -0.4452278435
C        5.1986966231    0.0181834636    1.8602520088
C        1.0590044750   -0.6080423121    0.0866607032
C        3.6489236996   -0.7110058632    0.1371393470
C        4.5360644420   -0.2040318341   -0.8410707777
C        4.0347398272   -0.6617201692    1.4921734532
C        2.3335954269   -1.3137094197   -0.2598973565
C        4.0788837205   -1.6964599833   -2.6696955659
C        3.5100353953   -2.7916063621   -1.7552702682
N        2.2687959050   -2.3284542490   -1.0962623974
N        4.3453788883   -0.4267302277   -2.2054296165
O        4.3231339075   -1.9182639476   -3.8453712058
F        3.3257696666   -1.3032873557    2.4492230368
H       -2.2887004790    1.3401945425    0.6459913551
H       -1.8517304621    0.2089190738   -1.5195660248
H       -0.5766420392    1.2685196177    2.4389156774
H        6.9099259242    1.1473681072    1.1964309174
H        0.2499312779   -0.9957029814   -1.8917539456
H        1.5206117098    0.0984949461    2.1053096412
H        6.3515826228    0.8982368567   -1.1930964139
H        5.4705164603    0.0688491355    2.9078689214
H        3.2886322324   -3.6700760004   -2.3677358069
H        4.2616288307   -3.0826249595   -1.0158936633
H        4.8346399028    0.1363934042   -2.8890247660
30   

C       -1.3836888319    0.7697880680    0.5317954940
C       -1.2454929511   -0.0564411047   -0.5830949495
C       -0.3050225101    0.9429276462    1.3986905902
C        6.0134945918    0.5398608923    0.9952449151
C       -0.0368606442   -0.7195874896   -0.8227335962
C        0.9053281736    0.2819213070    1.1601751092
C        5.7267373114    0.4464562947   -0.3634647983
C        5.1503681691   -0.0470416533    1.9160712316
C        1.0542852004   -0.5929591113    0.0599327243
C        3.6412978568   -0.7031096428    0.1279889030
C        4.5717431831   -0.1993474899   -0.8108607633
C        3.9791767650   -0.6827706840    1.4966308440
C        2.3300522376   -1.2797451729   -0.3125517803
C        4.1329486762   -1.6317040844   -2.6897797793
C        3.5281955596   -2.7392131287   -1.8149844862
N        2.2782586296   -2.2775961197   -1.1711259970
N        4.4159192685   -0.3817326050   -2.1851771584
O        4.3999351950   -1.8282509848   -3.8650282460
F        3.1996962499   -1.2942474658    2.4193033934
H       -2.3206155337    1.2830882392    0.7170010209
H       -2.0748843252   -0.1831908740   -1.2696913864
H       -0.4016992703    1.5997383051    2.2557777821
H        6.9172611833    1.0383863995    1.3300829518
H        0.0303901473   -1.3401562374   -1.7101258745
H        1.7139513714    0.4878486613    1.8457438672
H        6.4280986215    0.8571435776   -1.0806465726
H        5.3855248766   -0.0197310239    2.9734259673
H        3.3098962875   -3.5997843098   -2.4533958163
H        4.2591535241   -3.0581065769   -1.0665097130
H        4.9336742772    0.1893219855   -2.8406271735
30   

C       -1.3959364380    0.7308933213    0.5957828866
C       -1.3379368461   -0.2479745961   -0.3956908417
C       -0.2357910584    1.0821016747    1.2850093779
C        6.0054971232    0.4600394334    1.0702670529
C       -0.1262386659   -0.8839998042   -0.6885068288
C        0.9769444800    0.4480015627    0.9929684791
C        5.7684874119    0.3927557053   -0.2994978100
C        5.0854194116   -0.1021573760    1.9499716097
C        1.0523946150   -0.5748946119    0.0188859514
C        3.6319643123   -0.6998571357    0.0949870440
C        4.6115398569   -0.2088960782   -0.8008861494
C        3.9111389038   -0.6928472310    1.4777068100
C        2.3251406760   -1.2411842249   -0.3933222778
C        4.1878533827   -1.5711517640   -2.7363982583
C        3.5281727299   -2.6843156283   -1.9122796455
N        2.2747767735   -2.2100986582   -1.2848718857
N        4.4983250639   -0.3492006426   -2.1841569599
O        4.4826535186   -1.7406883544   -3.9092066773
F        3.0601350386   -1.2593829917    2.3651798779
H       -2.3351178986    1.2235349020    0.8212589381
H       -2.2331121058   -0.5152918388   -0.9457389993
H       -0.2715527180    1.8564976422    2.0428675609
H        6.9114563040    0.9241376497    1.4461836247
H       -0.1286518850   -1.6295122883   -1.4765720725
H        1.8500128207    0.7906411455    1.5311087446
H        6.5092234020    0.7914669977   -0.9830850855
H        5.2753326112   -0.0871797224    3.0166626915
H        3.3037915949   -3.5189362784   -2.5822439393
H        4.2300726009   -3.0461124783   -1.1555833778
H        5.0534780084    0.2243297796   -2.8059789731
30   

C       -1.3921573533    0.6951801473    0.6659554915
C       -1.3800389683   -0.4103955902   -0.1848336019
C       -0.1886338667    1.1980902911    1.1601926807
C        5.9903133245    0.3835189106    1.1511297969
C       -0.1686602618   -1.0188420997   -0.5330618207
C        1.0232108316    0.5912566793    0.8125741059
C        5.8114164735    0.3296507879   -0.2278511058
C        5.0107866777   -0.1430158693    1.9869928810
C        1.0564389666   -0.5485410046   -0.0233314457
C        3.6261316705   -0.6973844874    0.0657491627
C        4.6576979252   -0.2288468063   -0.7841514044
C        3.8387605016   -0.6908230410    1.4612232700
C        2.3243245580   -1.1945799769   -0.4736934371
C        4.2491096083   -1.5203841883   -2.7753721278
C        3.5208105379   -2.6291596218   -2.0080181504
N        2.2680659112   -2.1301732292   -1.3995551525
N        4.5946624311   -0.3326047918   -2.1739696148
O        4.5751474051   -1.6660660529   -3.9430940970
F        2.9232362748   -1.2123934324    2.3109448730
H       -2.3312225374    1.1664039032    0.9336929595
H       -2.3112601931   -0.7984568773   -0.5817554828
H       -0.1914829952    2.0672494668    1.8081355338
H        6.8944341257    0.8142450962    1.5688755937
H       -0.2046645713   -1.8703425760   -1.2042860108
H        1.9330444839    1.0388722761    1.1922653825
H        6.5936629079    0.7086277012   -0.8754938938
H        5.1504506287   -0.1317697470    3.0614841229
H        3.2853992700   -3.4329432619   -2.7110922967
H        4.1854343969   -3.0419859671   -1.2438547037
H        5.1931398625    0.2355586699   -2.7594826714
