56

C      1.23700   -0.60182   -6.51153
C      1.82059   -2.87062   -7.12132
C      0.11297   -0.67649   -7.34319
C      0.71369   -2.93803   -7.96280
C      2.09777   -1.70309   -6.38706
C     -0.15058   -1.84133   -8.05988
C     -3.26007   -3.39413   -5.98315
C     -2.84803   -2.14285   -5.20085
C     -2.06419   -4.33829   -6.13828
C     -2.24376   -2.50441   -3.84847
C     -1.42987   -4.67539   -4.79491
C      1.86906   -4.00178   -1.57363
C      1.12028   -3.86643   -2.89839
C      2.08828   -1.62937   -2.73388
C      1.12445   -0.43993   -2.78619
C      4.15809   -0.19483   -2.34068
C      4.43461   -2.55296   -3.15826
C     -0.39765   -3.77398   -2.70088
C      3.55532   -0.75476   -4.66578
C      3.53966   -1.30299   -3.21830
N     -1.05452   -3.42758   -4.01657
O      1.55626   -2.69006   -3.57391
O      3.23523   -1.74988   -5.64377
S      2.05079   -2.29081   -0.98059
Cl    -1.57449   -1.93881   -9.08195
H      1.43887    0.33889   -6.01385
H      2.50987   -3.70612   -7.04397
H     -0.53915    0.18540   -7.44762
H      0.52648   -3.83316   -8.54851
H     -3.63398   -3.10981   -6.96903
H     -4.07833   -3.90561   -5.46058
H     -2.12261   -1.55830   -5.77859
H     -3.70751   -1.49079   -5.01842
H     -2.36459   -5.28090   -6.60607
H     -1.31263   -3.88772   -6.78979
H     -1.88191   -1.62491   -3.31287
H     -2.95675   -3.03455   -3.21048
H     -2.12366   -5.22466   -4.15265
H     -0.51791   -5.26458   -4.90974
H      1.30637   -4.57853   -0.83523
H      2.83943   -4.47525   -1.72798
H      1.36521   -4.70582   -3.55861
H      0.14319   -0.73819   -2.41199
H      1.00664   -0.07456   -3.80733
H      1.47221    0.38268   -2.15848
H      5.20817   -0.05277   -2.61110
H      3.65609    0.76964   -2.46284
H      4.12786   -0.46730   -1.28284
H      5.42255   -2.31855   -3.56522
H      4.02156   -3.36944   -3.75325
H      4.57560   -2.88392   -2.12646
H     -0.62617   -2.98267   -1.98649
H     -0.82723   -4.71177   -2.34359
H      4.57862   -0.44055   -4.89031
H      2.92396    0.12820   -4.76153
H     -0.33911   -2.90603   -4.55052
