59

C      5.22664    4.84857   -0.92408
C      5.41096    4.35860   -2.23150
C      4.58864    4.07218    0.04458
C      3.12732   -5.22938   -3.68229
C      2.71214   -6.38356   -1.51813
C      2.93193    1.63377    1.72024
C      4.96482    3.08766   -2.60124
C      2.97226   -4.13028   -4.49988
C      2.16091   -6.38567   -0.26155
C      2.24512    0.47903    2.09195
C      1.59854   -3.04505   -2.80087
C      1.21812   -4.16824   -0.61907
C      2.56318   -0.49244   -0.13480
C      2.54268   -5.27207   -2.39019
C      4.12699    2.79661   -0.30397
C      3.42557    1.75042    0.41537
C      1.77282   -4.15656   -1.92904
C      4.32053    2.32021   -1.62818
C      3.22699    0.68294   -0.50343
C      2.19534   -3.03949   -4.04175
C      1.41137   -5.26506    0.20167
C      2.06471   -0.56712    1.16660
C      4.92405   -0.34171   -3.46182
C      1.34362   -2.03926   -6.04400
C      3.62513    0.30875   -2.95963
C      1.03469   -3.53205    3.04689
C      0.17215   -4.37870    2.11318
C      2.04941   -2.62993    2.35973
N      3.76884    1.04293   -1.73439
O      6.00479   -0.18276   -2.94839
O      4.76715   -1.08103   -4.58595
O      2.09502   -1.88401   -4.82589
O      0.94293   -5.41154    1.47563
O      1.33364   -1.68569    1.54222
H      5.59172    5.83953   -0.66849
H      5.92177    4.97550   -2.96606
H      4.45216    4.45326    1.05365
H      3.72792   -6.07217   -4.01598
H      3.29247   -7.23823   -1.85734
H      3.06468    2.44259    2.43423
H      5.14390    2.70694   -3.60210
H      3.46031   -4.07890   -5.46854
H      2.28581   -7.22739    0.41309
H      1.82528    0.37550    3.08844
H      0.99447   -2.19557   -2.49330
H      0.68640   -3.28928   -0.27497
H      2.43748   -1.33459   -0.80566
H      1.34708   -1.06469   -6.53512
H      0.31598   -2.33682   -5.81121
H      1.80311   -2.78479   -6.70101
H      3.25804    0.97358   -3.75273
H      2.86201   -0.46040   -2.83299
H      0.36607   -2.90939    3.65367
H      1.56931   -4.20235    3.72948
H     -0.57923   -4.91455    2.69978
H     -0.35282   -3.76324    1.38014
H      2.74208   -3.20377    1.73066
H      2.63965   -2.09328    3.11177
H      3.81279   -1.21819   -4.78638
