46

C     -0.36941    3.68852    4.47174
C      1.16173   -2.50208    0.15316
C     -1.15354    3.00154    3.54237
C      0.09545   -1.79245    0.70313
C     -0.32224    3.27435    5.80630
C      1.71597   -0.54530    2.00276
C      4.47550   -3.85173    0.60158
C     -1.84955    1.45652    5.26635
C      3.51858   -3.33687   -1.53363
C      5.24495   -4.84229   -1.47011
C      2.50463   -2.26861    0.49665
C      2.79744   -1.24702    1.43988
C      3.52429   -3.13974   -0.14254
C     -1.89890    1.87671    3.92937
C      0.38990   -0.80164    1.65110
C      5.32194   -4.70230   -0.08633
C     -1.07302    2.16090    6.18608
C      4.14112   -0.82395    1.85246
C     -1.93734    0.05633    2.07648
C     -4.12541    0.73735    3.21116
C     -3.81630    1.78150    2.17621
C     -2.67655    1.09096    2.91651
N      6.24815   -0.52067    1.97754
N      4.34809   -4.16015   -2.19215
N      5.31137   -1.19381    1.29130
N      4.33514    0.05862    2.86071
N      5.66247    0.22674    2.91671
N     -0.59482   -0.01155    2.29957
O     -2.55209   -0.63816    1.26186
F      6.24953   -5.43221    0.59641
Cl    -1.03187    1.62575    7.86212
H      0.22005    4.54594    4.15891
H      0.94255   -3.29549   -0.55704
H     -1.17948    3.32395    2.50483
H     -0.92733   -1.99869    0.42008
H      0.29015    3.79681    6.53406
H      1.95815    0.23301    2.72226
H      4.55865   -3.73939    1.67600
H     -2.40770    0.58007    5.58064
H      2.81196   -2.78143   -2.14768
H      5.92366   -5.51363   -1.99391
H     -4.52595    1.06630    4.16532
H     -4.45978   -0.23143    2.85610
H     -3.94502    1.50632    1.13482
H     -3.99745    2.82255    2.42672
H     -0.22045    0.62712    2.99024
