46

C     -3.87609   -1.70570    3.84428
C      2.71421   -0.03228    0.26426
C     -3.52810   -0.66215    2.98406
C      1.55234    0.57321    0.74080
C     -3.67452   -1.58780    5.22291
C      1.04978   -1.50158    1.88680
C      4.32916   -3.07615   -0.80013
C     -2.74761    0.63578    4.86804
C      5.50685   -1.14627   -0.00718
C      6.65425   -2.63685   -1.31577
C      3.07345   -1.35707    0.56584
C      2.22322   -2.11581    1.41421
C      4.31145   -1.88205   -0.06553
C     -2.95667    0.51776    3.48663
C      0.70677   -0.18837    1.56044
C      5.51341   -3.42941   -1.42111
C     -3.11577   -0.40819    5.71650
C      2.47644   -3.48894    1.86582
C     -1.16833    1.46303    1.85440
C     -3.56853    2.31911    1.71611
C     -2.91153    3.04219    2.85724
C     -2.51360    1.60651    2.55571
N      3.39602   -5.34811    2.35780
N      6.65202   -1.50034   -0.60935
N      3.64551   -4.15839    1.78842
N      1.51943   -4.23333    2.46802
N      2.12338   -5.39254    2.76080
N     -0.51036    0.29661    2.10637
O     -0.75353    2.35992    1.11458
F      5.57394   -4.57112   -2.16404
Cl    -2.86127   -0.23496    7.44939
H     -4.29797   -2.62344    3.44402
H      3.35890    0.53827   -0.39966
H     -3.68254   -0.76271    1.91299
H      1.29548    1.58958    0.47670
H     -3.93640   -2.39543    5.89877
H      0.40948   -2.09764    2.53249
H      3.45434   -3.71107   -0.87660
H     -2.29360    1.53450    5.27366
H      5.53945   -0.22748    0.57558
H      7.57845   -2.93433   -1.80875
H     -4.59438    1.98571    1.84186
H     -3.27080    2.59679    0.71062
H     -2.17718    3.80068    2.60872
H     -3.49396    3.21117    3.75790
H     -0.97499   -0.35842    2.72293
