13   
Generated by ForceBalance from scan.xyz: Frame 1 of 24
C       -0.0835989115    0.0096872041   -1.9578547638
C        0.0438549829   -0.4855674811   -0.5493362836
C       -0.1194076735    0.6595742510    0.4453137963
N       -0.0255226459    1.2671607194   -2.3628685724
N       -0.1815135002    1.2444458761   -3.7211383680
N       -0.3300953790    0.0343203723   -4.1520680381
N       -0.2751970912   -0.7618278159   -3.0532571388
Br       0.0704852916   -0.0248016740    2.2907491188
H        1.0233371673   -0.9563674049   -0.4131874713
H       -0.7090787646   -1.2565743960   -0.3566884495
H        0.6435789342    1.4240196674    0.3208105717
H       -1.1052876289    1.1164186184    0.3882382098
H       -0.3688635793   -1.7663510475   -3.1479699368
13   
Generated by ForceBalance from scan.xyz: Frame 2 of 24
C       -0.0105199276    0.0091322086   -1.9737214006
C        0.1503281100   -0.4815500751   -0.5670944847
C       -0.1392492498    0.6376063833    0.4298503289
N        0.1996694308    1.2400525640   -2.4099273041
N       -0.0571969956    1.2240384403   -3.7521329582
N       -0.4128810196    0.0434589733   -4.1442740124
N       -0.3932787900   -0.7383998325   -3.0345951669
Br       0.0930342750   -0.0270767171    2.2769062453
H        1.1728514666   -0.8461015392   -0.4231379780
H       -0.5194118640   -1.3278953057   -0.3875391617
H        0.5455622408    1.4738916627    0.3133929442
H       -1.1659974232    0.9927234999    0.3615978362
H       -0.6400019941   -1.7191725419   -3.0983673349
13   
Generated by ForceBalance from scan.xyz: Frame 3 of 24
C        0.0364266767    0.0118855271   -1.9439597241
C        0.2005216015   -0.4689293254   -0.5345692872
C       -0.2340360796    0.6141847130    0.4515515919
N        0.3846940045    1.1966812806   -2.4186352662
N        0.0484649084    1.1958887798   -3.7425576961
N       -0.4872538835    0.0690543388   -4.0882318820
N       -0.5062466493   -0.6911676896   -2.9644738273
Br      -0.0312439542   -0.0332347551    2.3080570908
H        1.2493389536   -0.7268899682   -0.3586115158
H       -0.3867347121   -1.3782198214   -0.3781793752
H        0.3791981680    1.5081385853    0.3653960782
H       -1.2847201088    0.8757985979    0.3363219190
H       -0.8890852270   -1.6290649862   -2.9904582120
13   
Generated by ForceBalance from scan.xyz: Frame 4 of 24
C        0.1021340821    0.0064584889   -1.9664429150
C        0.2901141464   -0.4604777972   -0.5558316032
C       -0.2600969991    0.5795888141    0.4210542906
N        0.5728787174    1.1251801120   -2.4936052376
N        0.1396275478    1.1540954969   -3.7879108056
N       -0.5708420527    0.1074363562   -4.0666237806
N       -0.6102560235   -0.6267259644   -2.9267271874
Br      -0.0157710410   -0.0297377101    2.2855709102
H        1.3561849493   -0.6134540359   -0.3678479934
H       -0.2104226408   -1.4210225412   -0.4057974562
H        0.2655182375    1.5280235805    0.3335812002
H       -1.3304134632    0.7366975865    0.2938982646
H       -1.1112883056   -1.5073250074   -2.9051714534
13   
Generated by ForceBalance from scan.xyz: Frame 5 of 24
C        0.1648890026    0.0079213087   -1.9773038231
C        0.3760295355   -0.4209948852   -0.5587671332
C       -0.2855464969    0.5734369886    0.3975469941
N        0.7463383236    1.0293666153   -2.5852126238
N        0.2277018785    1.0748367258   -3.8470201729
N       -0.6400462333    0.1305194115   -4.0299614720
N       -0.6974555188   -0.5504131482   -2.8582682416
Br      -0.0146308709    0.0110474271    2.2726231767
H        1.4494529406   -0.4630823641   -0.3609851392
H       -0.0300517502   -1.4237975930   -0.3996380371
H        0.1518578231    1.5658233551    0.3069009585
H       -1.3641009822    0.6299538118    0.2541880341
H       -1.3126047574   -1.3502594211   -2.7644709410
13   
Generated by ForceBalance from scan.xyz: Frame 6 of 24
C       -0.0773595019   -0.0265381154   -1.8402872240
C       -0.1644141138   -0.7476679761   -0.5322374581
C       -1.1589486374   -0.0447793811    0.3954987193
N        0.7044661034    1.0029173593   -2.1221233434
N        0.4085790116    1.3738170106   -3.4021134300
N       -0.5167221843    0.6198710902   -3.9056859204
N       -0.8419453407   -0.2664992523   -2.9320501418
Br      -1.3134531657   -1.0154093602    2.1099350847
H        0.8273518932   -0.7537380543   -0.0762285607
H       -0.4671275889   -1.7870745607   -0.6881391461
H       -0.8321944555    0.9642230268    0.6412132379
H       -2.1653924957   -0.0151867026   -0.0209086776
H       -1.5377167114   -0.9819472707   -3.1083792950
13   
Generated by ForceBalance from scan.xyz: Frame 7 of 24
C        0.1976826357   -0.0225444325   -1.9665232229
C        0.3653587977   -0.4631412932   -0.5466827361
C       -0.5550793463    0.3331213454    0.3814901500
N        1.0070157558    0.7767308161   -2.6420462918
N        0.4424640988    0.9478738812   -3.8733968417
N       -0.6706446391    0.2936762431   -3.9727461139
N       -0.8469559696   -0.3209939580   -2.7761503272
Br      -0.3211842924   -0.2488409704    2.2547510808
H        1.4080208475   -0.3004178576   -0.2694143402
H        0.1568690658   -1.5330636845   -0.4500066332
H       -0.3239658583    1.3970714504    0.3612494049
H       -1.6103837680    0.1827562618    0.1547140190
H       -1.6545994222   -0.9143471527   -2.6260160229
13   
Generated by ForceBalance from scan.xyz: Frame 8 of 24
C        0.2213352654   -0.0219388053   -1.9747358806
C        0.3833810317   -0.4367250261   -0.5457943696
C       -0.6434825446    0.2497034019    0.3563416481
N        1.1173358250    0.6101361649   -2.7147409344
N        0.5402383180    0.8070711371   -3.9367804033
N       -0.6627048145    0.3302753151   -3.9683978189
N       -0.8860539212   -0.1946258554   -2.7367174595
Br      -0.4181811400   -0.3291459879    2.2311735731
H        1.3962372611   -0.1693310413   -0.2409991970
H        0.2868592951   -1.5235396098   -0.4547553459
H       -0.5250847843    1.3324683422    0.3551049032
H       -1.6707265199   -0.0050240541    0.0958932860
H       -1.7729809421   -0.6389649818   -2.5306860088
13   
Generated by ForceBalance from scan.xyz: Frame 9 of 24
C        0.1140234616    0.1537800374   -1.9953705132
C        0.2225212886   -0.3752041463   -0.6013996061
C       -0.2581159192    0.5726897589    0.4924533068
N        1.0265988873    0.0249396675   -2.9431349447
N        0.5075073077    0.6128214578   -4.0611336645
N       -0.6734497429    1.0900317206   -3.8323941492
N       -0.9452429983    0.8014282264   -2.5337366454
Br       0.7151895419    2.2932113423    0.4733281992
H        1.2698756250   -0.6397814384   -0.4435101177
H       -0.3611335257   -1.3025106744   -0.5171612795
H       -1.3136664982    0.8298770253    0.3977525529
H       -0.0882803552    0.1424657887    1.4782793285
H       -1.8106521161    1.1237235841   -2.1181784559
13   
Generated by ForceBalance from scan.xyz: Frame 10 of 24
C        0.1225336543    0.1270326748   -2.0193996312
C        0.2709256645   -0.3668645814   -0.6148970646
C       -0.3039651850    0.5351980976    0.4686979851
N        0.9167780965   -0.1852368901   -3.0293484986
N        0.3958536119    0.4269637584   -4.1332091435
N       -0.6727080008    1.0942477161   -3.8365431456
N       -0.8705488287    0.9056383280   -2.5066786347
Br       0.5102103068    2.3398701379    0.4605979363
H        1.3353605855   -0.5403828469   -0.4434325774
H       -0.2271927679   -1.3425749191   -0.5291867792
H       -1.3780728637    0.6933515342    0.3652151314
H       -0.1044110196    0.1256311654    1.4574667283
H       -1.6152799412    1.4039715110   -2.0348418204
13   
Generated by ForceBalance from scan.xyz: Frame 11 of 24
C        0.1160243592    0.1203534821   -2.0463820754
C        0.3124666940   -0.3428160427   -0.6357222592
C       -0.3472242829    0.4979484660    0.4467438125
N        0.7599904605   -0.3556094311   -3.0991341706
N        0.2400259293    0.2807932438   -4.1888082681
N       -0.6859617944    1.1172545646   -3.8434896309
N       -0.7919933444    1.0173334372   -2.4939462339
Br       0.3033140592    2.3719283526    0.4685584835
H        1.3876906345   -0.4187383581   -0.4556073262
H       -0.0903360491   -1.3609751019   -0.5518505675
H       -1.4296173282    0.5633175103    0.3323729304
H       -0.1200933387    0.1013928427    1.4346805678
H       -1.3836926493    1.6642052812   -1.9859330436
13   
Generated by ForceBalance from scan.xyz: Frame 12 of 24
C       -0.3421000609    0.5643772296   -2.5586056625
C       -0.2560899068    0.5466191819   -1.0622949663
C       -1.3800876945    1.2425571481   -0.3112147247
N        0.4927631347   -0.0621926488   -3.3716774286
N        0.0303512273    0.1520919311   -4.6374971130
N       -1.0455763652    0.8728257556   -4.6260079342
N       -1.3067819213    1.1295636238   -3.3194982745
Br      -1.4677906594    3.1949526469   -0.6719222894
H        0.7098531358    0.9668277683   -0.7675202205
H       -0.2464644047   -0.5030734818   -0.7431247322
H       -2.3652739941    0.8542832665   -0.5698264986
H       -1.2337812979    1.1608382967    0.7641904007
H       -2.0424247839    1.7792762857   -3.0644812582
13   
Generated by ForceBalance from scan.xyz: Frame 13 of 24
C        0.0766043293    0.1152426801   -2.0733949261
C        0.3439740778   -0.2425994758   -0.6423402155
C       -0.5096215656    0.4623785481    0.4007283428
N        0.4415205392   -0.6135597285   -3.1162870620
N       -0.0295065814    0.0330574914   -4.2216824949
N       -0.6678139602    1.1116575759   -3.8943834723
N       -0.6228770273    1.1740708491   -2.5402745055
Br      -0.1482574881    2.4155018874    0.5162900213
H        1.4044788489   -0.0777794832   -0.4261040257
H        0.1725367162   -1.3206759185   -0.5430394583
H       -1.5775762704    0.3769219448    0.2014616686
H       -0.2944949117    0.0827829999    1.3977622275
H       -0.9797903082    1.9856111929   -2.0465551215
13   
Generated by ForceBalance from scan.xyz: Frame 14 of 24
C        0.0628021601    0.0975657764   -2.1397502716
C        0.4033390163   -0.2157727314   -0.7147487269
C       -0.4698611373    0.4450496365    0.3423747884
N        0.2242504539   -0.7329433085   -3.1580172935
N       -0.2227483320   -0.0731837662   -4.2660641201
N       -0.6543104798    1.1097770554   -3.9620078849
N       -0.4875848467    1.2342981398   -2.6223663950
Br      -0.1882004718    2.4123948829    0.4653224391
H        1.4550816747    0.0259155228   -0.5277211600
H        0.3075935665   -1.3012514501   -0.6017284844
H       -1.5348177105    0.3156752952    0.1524426061
H       -0.2254301005    0.0738396917    1.3358158735
H       -0.7130415436    2.0999812654   -2.1426441660
13   
Generated by ForceBalance from scan.xyz: Frame 15 of 24
C        0.0420190721    0.1290434998   -2.1520667128
C        0.3913603594   -0.1018160361   -0.7151785615
C       -0.5729907759    0.5034773708    0.2974353525
N        0.0672864801   -0.7912092999   -3.1035423261
N       -0.3217440875   -0.1655116534   -4.2528057861
N       -0.5835530324    1.0850028563   -4.0378413620
N       -0.3586744296    1.2902191839   -2.7173375160
Br      -0.4446600987    2.4893149298    0.3862555317
H        1.4078197232    0.2530607706   -0.5144027645
H        0.3993117042   -1.1873318660   -0.5702679327
H       -1.6156900375    0.2904361770    0.0655032277
H       -0.3412325599    0.1699637782    1.3072046861
H       -0.4968143127    2.2022330787   -2.2938740307
13   
Generated by ForceBalance from scan.xyz: Frame 16 of 24
C        0.0254202343    0.1332035137   -2.1319742537
C        0.4162926501   -0.0870360219   -0.7053668261
C       -0.5911830980    0.4220383217    0.3207981678
N       -0.1450315404   -0.8155867804   -3.0393708411
N       -0.4931415756   -0.1814624822   -4.1971511562
N       -0.5430202597    1.1023908505   -4.0287945044
N       -0.2146134951    1.3207441559   -2.7326699010
Br      -0.6333144668    2.4099563294    0.4207204170
H        1.4005445237    0.3489641428   -0.5068902556
H        0.5091497990   -1.1705544627   -0.5763271681
H       -1.6116757166    0.1206083549    0.0895174546
H       -0.3246041252    0.1013490268    1.3262817709
H       -0.2192350254    2.2559778771   -2.3398494735
13   
Generated by ForceBalance from scan.xyz: Frame 17 of 24
C        0.0017792677    0.1694472856   -2.0822372091
C        0.4127685377   -0.0578428085   -0.6635412899
C       -0.6490112272    0.3275297067    0.3632769201
N       -0.3419970196   -0.7679143251   -2.9512812701
N       -0.6381286387   -0.1219584918   -4.1170309273
N       -0.4868343943    1.1589769536   -3.9911734964
N       -0.0751755196    1.3610423761   -2.7165077929
Br      -0.8889169487    2.2976396383    0.4794023838
H        1.3507740669    0.4606101126   -0.4443618493
H        0.5978730595   -1.1324539674   -0.5620288638
H       -1.6301199905   -0.0739870728    0.1149544691
H       -0.3585927406    0.0201324596    1.3663841851
H        0.0506549550    2.2992728955   -2.3533958120
13   
Generated by ForceBalance from scan.xyz: Frame 18 of 24
C       -0.0468378584    0.2048237841   -2.0892882334
C        0.3652189468   -0.0238791545   -0.6713771154
C       -0.7612451391    0.2084107680    0.3329864000
N       -0.5425113873   -0.7039979087   -2.9132839696
N       -0.7828806519   -0.0618228758   -4.0938103919
N       -0.4516532839    1.1890666193   -4.0201679932
N        0.0231659350    1.3733392114   -2.7647672642
Br      -1.2610807509    2.1270715558    0.4374921634
H        1.2316052745    0.5920485829   -0.4155993542
H        0.6677570472   -1.0736716315   -0.5904325610
H       -1.6716265229   -0.3198007062    0.0552171064
H       -0.4562979710   -0.0655253209    1.3416546432
H        0.2840160747    2.2983837882   -2.4431538887
13   
Generated by ForceBalance from scan.xyz: Frame 19 of 24
C       -0.0918501250    0.2418603426   -2.0825798301
C        0.3335271713    0.0374798924   -0.6645922142
C       -0.8268437457    0.1525124839    0.3210083463
N       -0.7594703324   -0.6242392083   -2.8265521345
N       -0.9489565244   -0.0227843878   -4.0371058272
N       -0.4231506147    1.1616584575   -4.0578874440
N        0.1280314647    1.3433594610   -2.8332522350
Br      -1.5227113631    2.0075892684    0.3958490556
H        1.1300199225    0.7361971544   -0.3955704969
H        0.7399114583   -0.9770560454   -0.5812983627
H       -1.6701827323   -0.4692433708    0.0264022810
H       -0.5130248246   -0.0857770728    1.3360627505
H        0.5563374117    2.2288183650   -2.5898032237
13   
Generated by ForceBalance from scan.xyz: Frame 20 of 24
C       -0.1040254294    0.2827870082   -2.0642090854
C        0.3575663541    0.0924210806   -0.6547512366
C       -0.7972171311    0.1062830520    0.3422539033
N       -0.9342387309   -0.5061464285   -2.7251357064
N       -1.0759395466    0.0395537582   -3.9683481768
N       -0.3670865235    1.1175205184   -4.0883363468
N        0.2572132384    1.2835990685   -2.8961169068
Br      -1.6235020341    1.9043535351    0.4469341363
H        1.1002368408    0.8486621103   -0.3876278941
H        0.8456609306   -0.8875788029   -0.5844142468
H       -1.5946206912   -0.5709047073    0.0428122979
H       -0.4567374630   -0.1237972602    1.3505799859
H        0.8462552016    2.0922688281   -2.7360523686
13   
Generated by ForceBalance from scan.xyz: Frame 21 of 24
C       -0.1370848153    0.3457142181   -2.0467341844
C        0.3442868108    0.1711035514   -0.6409855489
C       -0.8037013644    0.0722464244    0.3570847078
N       -1.0847087080   -0.3595199169   -2.6401813345
N       -1.1709955899    0.1100971905   -3.9192587337
N       -0.3181074139    1.0626629931   -4.1254282043
N        0.3483403807    1.2210426899   -2.9541133143
Br      -1.7347602813    1.8105613093    0.5363698490
H        1.0234033779    0.9816793590   -0.3638116429
H        0.9147792468   -0.7654745863   -0.5857532181
H       -1.5598417817   -0.6388923628    0.0310689659
H       -0.4447233724   -0.1769648693    1.3541877295
H        1.0533704544    1.9428791817   -2.8627355538
13   
Generated by ForceBalance from scan.xyz: Frame 22 of 24
C       -0.1795591225   -0.0762462617   -2.0354889245
C        0.1881986885   -0.5915324183   -0.6773763050
C        0.6092850578    0.5556265524    0.2375788985
N       -0.6957847906    1.1085382574   -2.3172466992
N       -0.8775671762    1.1387212593   -3.6714119229
N       -0.4948529658    0.0301524949   -4.2179398482
N       -0.0462841753   -0.7498421844   -3.2014410501
Br       1.0843798245   -0.1455035292    2.0237168265
H        0.9988702083   -1.3215315977   -0.7615178823
H       -0.6694735334   -1.1140924515   -0.2410585071
H        1.4937205441    1.0715347566   -0.1318857730
H       -0.1946860493    1.2713488802    0.3902628621
H        0.3086153067   -1.6797603915   -3.3915992387
13   
Generated by ForceBalance from scan.xyz: Frame 23 of 24
C       -0.2041240533   -0.0068202660   -1.9517154851
C       -0.1047564028   -0.5481678872   -0.5579625936
C        0.0204307408    0.5841870817    0.4566363426
N       -0.4757219208    1.2400720536   -2.2985055307
N       -0.4757444531    1.2706784659   -3.6654780019
N       -0.2169136952    0.1028055706   -4.1566903357
N       -0.0398369632   -0.7195544531   -3.0904858097
Br       0.1327424100   -0.1634514139    2.2837290302
H        0.7577263396   -1.2176802040   -0.4792361852
H       -0.9939616365   -1.1471707555   -0.3337996868
H        0.9253392173    1.1703506449    0.3097455335
H       -0.8448889566    1.2422631797    0.4461734973
H        0.1800174216   -1.6982964616   -3.2338333448
13   
Generated by ForceBalance from scan.xyz: Frame 24 of 24
C       -0.1532013824   -0.0043572646   -1.9567135407
C       -0.0493291020   -0.5641336494   -0.5706700861
C       -0.0738370299    0.5504440786    0.4701202541
N       -0.2525580102    1.2714388403   -2.2895460825
N       -0.3198065324    1.3116110318   -3.6549334199
N       -0.2664010635    0.1217937432   -4.1579135495
N       -0.1599586022   -0.7258281057   -3.1019917211
Br       0.0628203215   -0.2280338260    2.2831201221
H        0.8767754851   -1.1406588832   -0.4739484211
H       -0.8761067006   -1.2590851927   -0.3897446391
H        0.7674677209    1.2315154361    0.3643577377
H       -1.0030825260    1.1151419789    0.4478273024
H       -0.1040353674   -1.7258015687   -3.2560587471
