18

C      0.90712    1.44814    1.57947
C      4.16874   -3.49548    1.82619
C      4.60083   -3.30554    0.54063
C      3.01947   -2.69416    2.10925
C      2.59072   -1.91871    1.06202
C      1.98149    0.44832    1.54682
C      1.47011   -0.91777    1.01931
N      0.02345    2.20481    1.57387
N      1.00429   -0.75433   -0.36172
S      3.62178   -2.16385   -0.32290
Br     2.17799   -2.69288    3.82337
H      4.62934   -4.16891    2.53975
H      5.43498   -3.78603    0.04503
H      2.78363    0.80937    0.89637
H      2.38359    0.32531    2.55575
H      0.68776   -1.26322    1.71051
H      0.28420   -0.03350   -0.40370
H      0.57603   -1.62059   -0.68361
