33

C      2.83834    4.14466   -0.11200
C      2.71794    3.64974    1.16040
C      1.58328    2.37659   -0.58426
C      0.17808    0.38170   -0.97637
C     -1.15151   -1.69354   -1.57855
C     -1.59739    0.46645   -2.81160
C     -2.43694   -1.44689   -0.78148
C     -2.83409    0.65279   -1.92972
C     -0.52251   -0.38876   -2.09776
C      3.58518    5.37400   -0.54445
C      3.27281    4.16291    2.45741
N      2.18742    3.41134   -1.09728
N     -3.38489   -0.66310   -1.59000
N      0.86689    1.50201   -1.39535
O      0.16782    0.05281    0.20706
S      1.74163    2.18546    1.14522
H     -0.43300   -2.23365   -0.95626
H     -1.39051   -2.32041   -2.44491
H     -1.89900   -0.05758   -3.72492
H     -1.20332    1.44388   -3.11150
H     -2.90300   -2.40865   -0.54212
H     -2.18182   -0.95007    0.16672
H     -2.56085    1.24427   -1.03565
H     -3.59286    1.22042   -2.47866
H      0.25810   -0.63922   -2.82916
H      4.35632    5.11291   -1.27711
H      2.90441    6.08311   -1.02764
H      4.06670    5.87904    0.29509
H      2.47659    4.41030    3.16880
H      3.92647    3.42590    2.93763
H      3.86119    5.06814    2.29190
H     -4.24837   -0.54027   -1.06588
H      0.88106    1.75424   -2.37708
