18

C      0.56476   -0.97403   -1.84586
C      0.18160   -0.92093   -0.50694
C      0.79889   -2.20338   -2.49288
C      0.00958   -2.09372    0.26518
C      0.62707   -3.33793   -1.72689
C      0.24513   -3.29875   -0.39032
C     -0.39751   -2.06216    1.69112
C      0.49900   -5.42861   -0.97739
O     -0.55818   -3.04014    2.39463
O      0.78846   -4.66048   -2.10500
O      0.16205   -4.58834    0.08596
O     -0.57972   -0.79233    2.15087
F      1.56228   -6.18809   -0.64752
F     -0.51795   -6.27317   -1.23947
H      0.68623   -0.05136   -2.40459
H      0.00684    0.03615   -0.02961
H      1.09763   -2.26125   -3.53443
H     -0.84236   -0.88425    3.08669
