25

C     -4.74130   -0.16066   -1.34654
C     -3.69775    0.08568   -2.24142
C     -4.56987   -1.02321   -0.26012
C     -2.44751   -0.52012   -2.05650
C     -3.33133   -1.63151   -0.09099
C     -2.28007   -1.38919   -0.97136
C      0.84205    0.64865   -0.38971
C      1.50324   -0.14280   -1.51570
C      0.14600    1.46690   -2.43771
C     -1.01887    0.96178   -3.28946
O     -0.20055    1.37134   -1.06282
O      1.33819    0.72945   -2.64535
O     -1.39521   -0.37116   -2.91835
F     -3.11978   -2.46895    0.94842
F     -1.09120   -1.99232   -0.75967
H     -5.70457    0.31485   -1.50481
H     -3.85535    0.73633   -3.09557
H     -5.36794   -1.23314    0.44447
H      0.38244    0.01779    0.37364
H      1.54029    1.35412    0.07843
H      2.57383   -0.30055   -1.36732
H      0.99884   -1.09626   -1.69256
H      0.35603    2.51219   -2.71231
H     -0.70605    0.92410   -4.33594
H     -1.85913    1.65542   -3.19111
