22

C      2.02592   -0.72230    0.12843
C      0.89113   -0.29082    0.82138
C      1.65119   -1.46342    2.80234
C      2.98080   -1.53148    0.75768
C      0.70957   -0.66458    2.15047
C      2.77899   -1.88867    2.10481
C      4.81261   -0.21442   -1.32929
C      4.38507   -1.65638   -1.19867
N      4.29143    0.45780   -2.30031
N      5.77272    0.23126   -0.45334
O      4.83978    1.77650   -2.31355
O      4.11385   -2.01459    0.16259
Cl    -0.71205   -0.12500    3.02771
Cl     3.96582   -2.88066    2.92153
H      2.16401   -0.40340   -0.89746
H      0.15887    0.33711    0.32463
H      1.51359   -1.75261    3.83842
H      5.20866   -2.31456   -1.48509
H      3.53084   -1.85160   -1.85134
H      5.88575    1.23752   -0.41213
H      5.80507   -0.24794    0.43895
H      4.37284    2.18831   -3.05712
