33

C      2.73140    4.31084   -0.00631
C      2.89659    3.66296    1.19010
C      1.57978    2.47560   -0.48566
C      0.33419    0.38127   -0.89810
C      0.35232   -0.62177   -3.24751
C     -1.09558   -1.64202   -1.44557
C      1.35440   -1.75352   -3.00915
C     -0.05935   -2.76359   -1.31613
C     -0.48280   -0.33416   -1.97629
C      3.26853    5.65885   -0.39409
C      3.63262    4.08521    2.42840
N      1.98007    3.62451   -0.95327
N      0.62833   -2.96096   -2.60256
N      0.81002    1.62239   -1.27014
O      0.55492   -0.06937    0.22304
S      2.07253    2.10837    1.14988
H      0.87826    0.27359   -3.59724
H     -0.33387   -0.92872   -4.04418
H     -1.87147   -1.96079   -2.15061
H     -1.56891   -1.46720   -0.47572
H      1.89547   -1.96464   -3.93756
H      2.09966   -1.43095   -2.25788
H      0.63698   -2.51692   -0.50051
H     -0.56882   -3.69653   -1.05238
H     -1.29617    0.35258   -2.24810
H      3.91990    5.57170   -1.27036
H      2.44811    6.33219   -0.66457
H      3.83987    6.12141    0.41296
H      2.96634    4.13758    3.29697
H      4.44220    3.38900    2.67560
H      4.07681    5.07380    2.29270
H      1.28480   -3.73343   -2.51463
H      0.60778    1.99027   -2.19285
