28

C      0.10671   -3.45392   -2.07261
C      0.98106    1.43931    3.01389
C      1.22616    0.73982    1.81501
C      0.45894   -4.04306   -3.28106
C     -1.17633    0.38672    1.45014
C      1.69567   -2.03224   -3.86949
C      0.52519   -2.15706   -1.72263
C     -0.33829    1.58370    3.39708
C     -1.38703    1.06986    2.63183
C      0.16822    0.23238    1.06795
C      1.32511   -1.47069   -2.64992
C      1.25581   -3.31903   -4.17420
C      0.07651   -1.64730   -0.39400
C     -2.24853    1.92070    4.51316
O     -0.59652   -2.30250    0.37641
O     -0.84887    2.24414    4.49616
O     -2.59066    1.38679    3.22256
O      0.49957   -0.37799   -0.15187
F      1.77836   -0.22779   -2.40210
Cl     1.71300   -4.03544   -5.70193
H     -0.50980   -3.99023   -1.35874
H      1.79239    1.84809    3.60695
H      2.24003    0.59345    1.45764
H      0.12516   -5.04400   -3.53224
H     -1.99189   -0.01591    0.86217
H      2.31487   -1.46288   -4.55398
H     -2.43678    1.15849    5.28152
H     -2.82775    2.82853    4.69320
