28

C      2.24007   -0.37518   -3.04443
C      0.52570    1.89192    3.46796
C      1.30490    1.30616    2.44978
C      3.10438   -0.98445   -3.94623
C     -0.68375    0.31504    1.40460
C      4.31220   -1.97198   -2.07938
C      2.37385   -0.53819   -1.65337
C     -0.83775    1.67604    3.41676
C     -1.42366    0.90635    2.40971
C      0.70266    0.54511    1.45353
C      3.42875   -1.34719   -1.20233
C      4.13933   -1.78381   -3.44935
C      1.37780    0.17264   -0.79959
C     -3.05897    1.77095    3.66707
O      0.50145    0.88241   -1.25108
O     -1.81142    2.10245    4.29728
O     -2.78272    0.82433    2.62037
O      1.55992   -0.06820    0.52638
F      3.64081   -1.55739    0.11008
Cl     5.24031   -2.56330   -4.56131
H      1.42799    0.25114   -3.39878
H      0.97757    2.48310    4.25751
H      2.38181    1.43678    2.43347
H      2.98344   -0.84689   -5.01527
H     -1.14141   -0.27703    0.62154
H      5.11209   -2.58810   -1.68357
H     -3.72518    1.31327    4.40095
H     -3.49754    2.67757    3.22818
