22

C     -1.70465   -0.65736    0.84325
C     -0.89247    0.40536    0.45800
C     -1.78385    1.82178    2.25640
C     -4.05629   -0.72502    3.60391
C     -2.62625    0.76253    2.64825
C     -3.60091    0.57996    3.71057
C     -2.55814   -0.46599    1.93395
C     -0.94143    1.61999    1.17092
C     -4.04811    1.58889    4.67193
N     -4.62631    1.41183    5.81822
N     -3.44582   -1.34271    2.53877
N     -3.77661    2.93005    4.33264
O     -4.75244    0.03537    6.15928
Cl     0.12332    2.92932    0.66107
H     -1.66585   -1.60284    0.30851
H     -0.21525    0.30354   -0.38342
H     -1.77594    2.75814    2.80104
H     -4.77816   -1.24290    4.21553
H     -3.59309   -2.30494    2.26857
H     -4.19085    3.55917    5.01655
H     -4.09342    3.16401    3.39507
H     -5.10144    0.09180    7.06257
