25

C     -1.92841   -1.40740   -2.11817
C     -2.73567   -1.91153   -1.09563
C     -3.73032    0.29062   -0.83230
C     -1.99257   -0.06651   -2.51702
C     -3.61750   -1.04519   -0.46095
C     -2.92674    0.75366   -1.86702
C      0.83302    0.60554   -0.54151
C      1.48130   -0.19438   -1.67014
C      0.56948    1.72880   -2.54898
C     -0.54710    1.59064   -3.58167
O      0.03750    1.57154   -1.23904
O      1.60910    0.77600   -2.71553
O     -1.19375    0.30940   -3.56651
F     -4.40249   -1.51000    0.54554
F     -3.06901    2.04976   -2.24367
H     -1.23108   -2.05526   -2.64005
H     -2.68180   -2.95221   -0.79302
H     -4.43206    0.95756   -0.34287
H      0.16873    0.00943    0.08882
H      1.58066    1.11383    0.08049
H      2.47964   -0.56455   -1.42602
H      0.84705   -1.02636   -1.99371
H      1.02013    2.72676   -2.66141
H     -0.10563    1.66304   -4.57792
H     -1.26229    2.40427   -3.44724
