22

C      1.78926   -1.28148   -0.41173
C      0.65593   -0.66876    0.12373
C      1.59473   -0.91551    2.35380
C      2.82953   -1.71879    0.41277
C      0.57135   -0.49113    1.50542
C      2.72024   -1.52754    1.79944
C      4.83857   -0.73636   -1.67933
C      5.05213   -1.50813   -0.40494
N      4.96628    0.54665   -1.61634
N      4.57928   -1.46824   -2.81796
O      4.74850    1.10922   -2.91146
O      3.91965   -2.36674   -0.12509
Cl    -0.84644    0.27709    2.19636
Cl     4.00592   -2.06724    2.85486
H      1.87903   -1.42763   -1.48349
H     -0.14843   -0.33161   -0.52161
H      1.52021   -0.77783    3.42686
H      5.23667   -0.81423    0.41691
H      5.89952   -2.19049   -0.50668
H      4.22843   -0.93521   -3.60508
H      4.13447   -2.36518   -2.66497
H      4.84305    2.05931   -2.74133
