20

C      1.69659   -0.99189    0.22708
C      0.62379   -0.29534    0.78668
C      2.49443   -1.54372    2.45891
C      0.89466    2.71949    5.45720
C      0.63619    2.31975    6.74965
C      1.43817   -0.81516    3.02773
C      2.61137   -1.60737    1.07846
C      0.51033   -0.21438    2.17074
C      1.07953    0.54001    5.16650
C      1.35198   -0.76575    4.52220
N      1.14248    1.70777    4.57216
O      1.56280   -1.76366    5.20397
F      3.64834   -2.29452    0.53675
F     -0.57253    0.41353    2.68297
S      0.71770    0.60481    6.87977
H      1.82115   -1.06933   -0.84838
H     -0.12894    0.17728    0.16387
H      3.21465   -2.04471    3.09743
H      0.91228    3.74863    5.11528
H      0.40724    2.94115    7.60613
