21

C      1.80425   -0.63974   -0.12008
C      2.73297   -1.49800    0.47590
C      0.75090   -0.09540    0.62027
C      1.53519   -1.29956    2.60662
C      2.57542   -1.80517    1.82055
C      0.64150   -0.43585    1.96212
C      1.37460   -1.65697    4.04650
C      1.07047   -4.56269    3.82166
O     -0.97829   -2.86063    3.40335
O     -0.05588   -3.10639    5.78737
F      3.47112   -2.63075    2.41454
F     -0.35557    0.10301    2.69647
F      2.24765   -4.62615    4.46257
F      0.32814   -5.62122    4.14827
F      1.28685   -4.55989    2.50006
S      0.13515   -2.99130    4.34097
H      1.90512   -0.38925   -1.17175
H      3.56133   -1.92537   -0.07906
H      0.02465    0.57809    0.17781
H      0.95104   -0.83762    4.63328
H      2.29963   -1.99342    4.51614
