58

C      3.54262  -11.26282   -2.39067
C      3.36446  -10.99763    0.01071
C      3.34695   -7.85304   -3.92255
C      2.21304  -10.89490   -2.52925
C      2.02869  -10.63028   -0.12198
C      2.05554   -7.45034   -3.58657
C      5.10481   -8.05013   -0.74957
C      2.60687   -7.40872   -1.20808
C      6.09943   -8.40186   -1.62938
C      7.34802  -12.27845    0.07161
C      3.91947   -7.79775   -1.52610
C      4.14312  -11.29712   -1.11800
C      4.26599   -8.03002   -2.88432
C      1.45566  -10.54790   -1.40073
C      1.68564   -7.24503   -2.23801
C      7.62681  -12.19366   -1.25633
C      5.54784  -11.63854   -0.97879
C      6.07702   -9.67653   -5.05577
C      9.46397  -11.51694   -2.90084
C      7.87138   -8.28562   -3.95915
C      8.87933  -12.59218   -1.97659
C     -1.41716   -8.36612   -1.38528
C     -0.47024   -9.31024   -0.65588
C     -0.70218   -7.54394   -2.46040
C      6.36439   -8.44145   -4.17527
N      6.46903  -11.75433   -1.90985
N      5.60582   -8.41382   -2.92998
O      5.84375   -9.53393   -6.24073
O      6.02658  -11.92925    0.26277
O      6.14483  -10.89934   -4.51195
O      0.17815  -10.13572   -1.63781
O      0.40849   -6.82699   -1.89511
H      4.12009  -11.51562   -3.27275
H      3.81345  -11.03672    0.99792
H      3.61575   -8.02413   -4.96092
H      1.75126  -10.83052   -3.50887
H      1.44737  -10.39864    0.76338
H      1.32803   -7.28139   -4.37430
H      5.20572   -7.99501    0.32636
H      2.29873   -7.23440   -0.18141
H      7.12606   -8.66853   -1.42597
H      7.90563  -12.56772    0.94918
H      8.76779  -11.27474   -3.70732
H     10.39129  -11.87369   -3.35991
H      9.69342  -10.60115   -2.34605
H      8.28756   -9.09848   -3.36408
H      8.37309   -8.28600   -4.93009
H      8.08392   -7.33773   -3.45724
H      9.62229  -12.88840   -1.22856
H      8.65966  -13.48839   -2.56975
H     -2.22864   -8.93055   -1.86046
H     -1.86968   -7.70020   -0.64158
H      0.27806   -8.72660   -0.11441
H     -1.01033   -9.94334    0.05890
H     -1.38767   -6.80493   -2.88793
H     -0.36189   -8.20473   -3.26016
H      6.02340   -7.60048   -4.78429
H      6.29596  -10.96547   -3.52503
