67

C      2.17503    1.03866    1.82102
C      2.77968    2.09230    1.73733
C     -1.41460   -8.33463    2.84250
C     -2.72603   -8.27114    3.32198
C      0.45770   -0.51864    0.97201
C     -0.65951   -7.16210    2.75469
C     -3.27341   -7.03838    3.69183
C     -0.23983   -1.71131    1.04622
C      1.75360   -1.11192    2.93683
C      1.46955   -0.19552    1.91721
C      1.05363   -2.32402    3.00981
C     -1.20067   -5.92937    3.13985
C     -2.53291   -5.85047    3.59841
C      0.04705   -2.63886    2.06765
C      1.35062   -3.27398    4.07956
C     -0.38292   -4.67873    3.04554
C     -0.78064   -4.65544    8.45407
C      3.78219    3.91245    0.23598
C      2.75178    4.57689    1.10323
C      0.27511   -4.59092    7.34655
C     -1.05626   -6.09336    8.88446
C     -0.39341   -6.91810    6.62432
C      3.48547    3.34003    1.62219
C     -0.13170   -5.48272    6.16750
C     -3.17353   -4.52296    3.93225
C     -0.80083   -9.25692    8.50343
C     -2.80132   -8.93135    6.96358
C      0.90568   -5.49302    5.02408
C     -1.95289   -8.34608    8.08988
N     -0.67763   -3.81975    2.12628
N      0.62122   -4.48458    3.99917
N     -1.46342   -6.94094    7.69404
O      2.14724   -3.08968    4.99981
H     -0.98966   -9.28130    2.52104
H     -3.33026   -9.17263    3.38287
H      0.23723    0.19268    0.18170
H      0.35418   -7.20093    2.36297
H     -4.30738   -6.99111    4.02704
H     -1.01324   -1.95882    0.32553
H      2.51776   -0.89844    3.67644
H     -0.45604   -4.09913    9.33841
H     -1.71574   -4.18747    8.11930
H      3.43981    3.33425   -0.61564
H      4.74436    4.39795    0.10604
H      2.99992    5.52305    1.57403
H      1.70591    4.45254    0.84327
H      0.41620   -3.56348    7.00439
H      1.24652   -4.92055    7.73531
H     -0.16537   -6.55900    9.30938
H     -1.86673   -6.15671    9.61371
H     -0.74523   -7.53206    5.79427
H      0.50003   -7.37183    7.05795
H      4.23998    3.51376    2.38483
H     -1.07342   -5.10468    5.75599
H     -2.53255   -3.89295    4.55864
H     -3.35686   -3.95175    3.01729
H     -4.12890   -4.66297    4.44527
H     -0.17527   -9.53642    7.65224
H     -0.17108   -8.81997    9.28221
H     -1.22616  -10.17734    8.91140
H     -2.20933   -9.17571    6.07909
H     -3.60672   -8.25374    6.66176
H     -3.26467   -9.85458    7.32080
H      0.94440   -6.47232    4.54924
H      1.89711   -5.26709    5.41649
H     -2.59362   -8.15661    8.95590
H     -2.27917   -6.47861    7.27671
