58

C      3.23312  -11.19579    0.66683
C      2.98526  -11.05256   -1.73629
C      3.22711   -7.39095   -3.00846
C      1.86190  -11.02034    0.82442
C      1.61419  -10.87357   -1.58281
C      2.02094   -7.33411   -2.30891
C      5.72570   -8.12477   -0.47392
C      3.14726   -7.81540   -0.19676
C      6.50651   -8.07262   -1.59894
C      7.17677  -11.43198   -1.77304
C      4.36908   -7.86199   -0.88245
C      3.81375  -11.19920   -0.61211
C      4.39275   -7.66426   -2.29088
C      1.04698  -10.83417   -0.30258
C      1.98113   -7.56554   -0.91583
C      7.37791  -11.56407   -0.43373
C      5.25719  -11.33203   -0.73676
C      6.84908   -8.61867   -4.79765
C      8.68675  -13.10914    1.07242
C      7.17725   -6.23592   -3.97619
C      8.65154  -11.76465    0.32688
C     -1.38946   -8.48096    0.08964
C     -0.79946   -9.71479    0.77394
C     -0.41104   -7.84324   -0.89020
C      6.22411   -7.43398   -4.03121
N      6.14174  -11.49983    0.20958
N      5.71526   -7.82135   -2.72207
O      7.60633   -8.45841   -5.72836
O      5.81703  -11.28136   -1.98902
O      6.46085   -9.85356   -4.41248
O     -0.30972  -10.63962   -0.21890
O      0.80720   -7.56295   -0.19264
H      3.87303  -11.32804    1.53349
H      3.41691  -11.05764   -2.73191
H      3.23299   -7.22748   -4.08261
H      1.42806  -11.03150    1.81938
H      0.97059  -10.73677   -2.44614
H      1.10980   -7.11021   -2.85186
H      6.07009   -8.36320    0.52315
H      3.08518   -8.00328    0.87006
H      7.57200   -8.22454   -1.70557
H      7.80398  -11.42389   -2.65123
H      7.84162  -13.18664    1.76201
H      9.61320  -13.20931    1.64737
H      8.62682  -13.94617    0.36923
H      8.08296   -6.47803   -3.41442
H      7.47293   -5.94976   -4.98667
H      6.67799   -5.39486   -3.48824
H      9.49707  -11.69335   -0.36564
H      8.76080  -10.94677    1.04964
H     -2.29596   -8.75199   -0.46340
H     -1.67887   -7.76224    0.86571
H      0.01065   -9.41137    1.43858
H     -1.56229  -10.23492    1.36139
H     -0.82798   -6.91791   -1.30901
H     -0.21731   -8.53868   -1.71214
H      5.35386   -7.15132   -4.63120
H      5.90903   -9.80174   -3.60521
