23   

C        5.7000052237    1.7602098295    0.0652210300
C        4.7727685810    2.0879635287   -0.9234357098
C        5.4856023141    0.6380463714    0.8651645488
C        3.6365486255    1.2927406435   -1.1114235844
C        4.3483130492   -0.1559191495    0.6749316515
C        3.3976863882    0.1482551491   -0.3220298855
C        1.3270272685   -0.6473580951   -1.5648469862
C        2.1983112263   -0.6870352723   -0.5130619146
C        0.1892153385   -1.5997430672   -1.3689864737
C        1.7411792988   -1.7138808513    0.5142638396
C        0.8295721419   -2.5754312433   -0.3729925296
H        6.5808499641    2.3748695148    0.2125576960
H        4.9310628362    2.9611686060   -1.5459942567
H        6.2016122677    0.3797334117    1.6370426169
H        2.9307846408    1.5781869320   -1.8808299351
H        4.2252227888   -1.0149450543    1.3201316994
H        1.4458938029   -0.0288895407   -2.4460929022
H       -0.1209046589   -2.0962909855   -2.2938279271
H       -0.6561085807   -1.0751794434   -0.9115356613
H        1.1673340848   -1.2168684084    1.3029581208
H        2.5466276258   -2.3177683211    0.9401974306
H        0.1018315879   -3.1675907507    0.1908359257
H        1.4692723208   -3.2584108637   -0.9424390405
23   

C        5.6766908213    1.7465962075    0.0665765075
C        4.6709817335    2.1522261989   -0.8120362762
C        5.5464527966    0.5399895135    0.7562688066
C        3.5390799002    1.3507647163   -0.9997260304
C        4.4132861115   -0.2600669912    0.5665002585
C        3.3879415249    0.1268787584   -0.3171525404
C        1.4071613527   -0.7590337633   -1.6285664698
C        2.1913202213   -0.7122278493   -0.5124870485
C        0.2402964343   -1.6766254283   -1.4355990436
C        1.6315449795   -1.6215807353    0.5725220574
C        0.7810539166   -2.5578810249   -0.2999666189
H        6.5544438103    2.3658271558    0.2132033657
H        4.7652636627    3.0897666860   -1.3479886536
H        6.3253080609    0.2204082841    1.4392155719
H        2.7649716688    1.6874538176   -1.6783256363
H        4.3485353875   -1.1933580016    1.1101121409
H        1.6157187239   -0.2263723901   -2.5489643120
H       -0.0032000495   -2.2577557753   -2.3306074840
H       -0.6296228141   -1.1015499835   -1.1016230684
H        1.0015996254   -1.0384026912    1.2517925365
H        2.3876805393   -2.1786450565    1.1316494022
H       -0.0007624547   -3.0847301189    0.2562309858
H        1.4530677612   -3.2993724345   -0.7454917992
23   

C        5.6713898486    1.7393814879    0.0768797617
C        4.6016257136    2.2067051099   -0.6903589400
C        5.6120907667    0.4647440767    0.6458363796
C        3.4763862531    1.3981967030   -0.8885834560
C        4.4852088376   -0.3416011256    0.4455102032
C        3.4032627972    0.1089207824   -0.3287415061
C        1.4996825519   -0.8735615086   -1.6799133531
C        2.2086362474   -0.7352390689   -0.5238182256
C        0.3045451536   -1.7528700524   -1.4790220721
C        1.5561086867   -1.5166423168    0.6072323220
C        0.7488601571   -2.5246040254   -0.2259549998
H        6.5438798633    2.3641001988    0.2314234161
H        4.6414009824    3.1965322977   -1.1305579580
H        6.4398182223    0.0987764021    1.2425501860
H        2.6478514207    1.7728022400   -1.4778249956
H        4.4580258749   -1.3292506623    0.8891558946
H        1.7819473207   -0.4277175687   -2.6267495145
H        0.1110525610   -2.4168552158   -2.3273706258
H       -0.5746409855   -1.1362742982   -1.2648327536
H        0.8933934723   -0.8566578501    1.1760409571
H        2.2678459675   -2.0141994944    1.2721800917
H       -0.0797686654   -2.9826142702    0.3233691588
H        1.4346900524   -3.3157537651   -0.5477912280
23   

C        5.6726541452    1.7300673228    0.0829555813
C        4.5442036946    2.2474940223   -0.5591770142
C        5.6769670685    0.4013035003    0.5167813238
C        3.4240556432    1.4345542003   -0.7686015091
C        4.5547464467   -0.4086409947    0.3051424875
C        3.4191384829    0.0935790363   -0.3472131755
C        1.5873686748   -0.9993702955   -1.7196684709
C        2.2247493325   -0.7562099141   -0.5408781989
C        0.3648722181   -1.8375489582   -1.5063043420
C        1.4884616942   -1.4034335867    0.6223556556
C        0.7137095152   -2.4808040508   -0.1533385849
H        6.5409900679    2.3582678890    0.2465064959
H        4.5346858320    3.2788817305   -0.8927451439
H        6.5489940199   -0.0025641574    1.0183535093
H        2.5478897593    1.8418766837   -1.2592768938
H        4.5644547337   -1.4373639431    0.6453855466
H        1.9361837227   -0.6503495932   -2.6848872792
H        0.2118071324   -2.5836267014   -2.2923855615
H       -0.5136704302   -1.1904555659   -1.4141566293
H        0.8067597454   -0.6779752498    1.0776140380
H        2.1545769899   -1.8352208947    1.3755164712
H       -0.1570089640   -2.8673631250    0.3857141535
H        1.4015789245   -3.3109265047   -0.3471208064
23   

C        5.6786824529    1.7211874798    0.0745119911
C        4.4947035051    2.2798186112   -0.4159913948
C        5.7375620097    0.3528933443    0.3556469864
C        3.3731114612    1.4688605389   -0.6258677611
C        4.6136036838   -0.4545415199    0.1436509907
C        3.4231676683    0.0917078029   -0.3552662704
C        1.6764473847   -1.1360961076   -1.7350642061
C        2.2263393877   -0.7610091579   -0.5477672208
C        0.4322669081   -1.9406618733   -1.5172723811
C        1.4050403639   -1.2720187919    0.6261761707
C        0.6766178835   -2.4280321139   -0.0784018414
H        6.5479986275    2.3478056305    0.2389155856
H        4.4436073213    3.3409771566   -0.6315087837
H        6.6526742012   -0.0832243712    0.7396856099
H        2.4539727147    1.9044745998   -0.9998445129
H        4.6608240979   -1.5140365035    0.3664900497
H        2.1006016380   -0.9014110926   -2.7047069389
H        0.3268389079   -2.7702365933   -2.2234193824
H       -0.4431069804   -1.2842925900   -1.5619889271
H        0.7003227721   -0.4992149884    0.9492041272
H        2.0164460648   -1.6168537434    1.4658762316
H       -0.2343390636   -2.7496937507    0.4362334707
H        1.3679455905   -3.2762256026   -0.1276830306
23   

C        5.6882159574    1.7088274937    0.0661808413
C        4.4587913755    2.3004169590   -0.2393963742
C        5.7850284981    0.3174739769    0.1655119615
C        3.3289180960    1.4996500358   -0.4439795983
C        4.6526506944   -0.4796638557   -0.0406416267
C        3.4149758020    0.1014554919   -0.3468766136
C        1.7771297006   -1.2719757386   -1.7288611460
C        2.2139742305   -0.7465139839   -0.5519983296
C        0.5176139051   -2.0564399033   -1.5272347528
C        1.2995216499   -1.1329829327    0.6001637133
C        0.6369838315   -2.3712019124   -0.0256486165
H        6.5640543227    2.3274097400    0.2263402937
H        4.3794686665    3.3787527336   -0.3169791266
H        6.7363352724   -0.1446850744    0.4032869731
H        2.3759573158    1.9590611017   -0.6789797184
H        4.7289411244   -1.5577902325    0.0387037371
H        2.2934122769   -1.1601436015   -2.6755129715
H        0.4725916806   -2.9632337271   -2.1384895292
H       -0.3497930910   -1.4173818999   -1.7230520211
H        0.5668831374   -0.3384856010    0.7737217340
H        1.8410236139   -1.3715092253    1.5209564975
H       -0.3146730569   -2.6417290474    0.4426717277
H        1.3312611805   -3.2113097837    0.0835371772
23   

C        5.6974959694    1.6997652745    0.0679010046
C        4.4409397844    2.3021641983   -0.0452164422
C        5.8121686709    0.3088703814   -0.0166924907
C        3.3015368006    1.5124576115   -0.2394701665
C        4.6702667196   -0.4774287390   -0.2115820082
C        3.4037715480    0.1132658971   -0.3173723764
C        1.8794512972   -1.3990575767   -1.6766137456
C        2.1991330858   -0.7226865353   -0.5393253872
C        0.6037155761   -2.1632742004   -1.5022798461
C        1.1828758464   -0.9847798282    0.5616839568
C        0.5829139825   -2.2966997105    0.0303495666
H        6.5809255243    2.3097703696    0.2190164990
H        4.3483040712    3.3804795903    0.0162062735
H        6.7851645881   -0.1614428197    0.0681336942
H        2.3288075575    1.9812220300   -0.3311448082
H        4.7618694953   -1.5551968472   -0.2786440645
H        2.4916977222   -1.4110329202   -2.5711553626
H        0.6128798942   -3.1364586974   -2.0030401259
H       -0.2394730771   -1.5585064772   -1.8521968823
H        0.4349077470   -0.1857335693    0.5724803251
H        1.6378416987   -1.1053852350    1.5498675455
H       -0.4080633003   -2.5208070986    0.4376492157
H        1.2647438190   -3.1095108219    0.3027010232
23   

C        5.6962325057    1.6879628202    0.0832936258
C        4.4270544452    2.2708855563    0.1408054140
C        5.8216200547    0.3187246726   -0.1691210140
C        3.2858875338    1.4831937795   -0.0508619532
C        4.6781499931   -0.4661214009   -0.3605580997
C        3.3980327187    0.1026655345   -0.2941189738
C        1.9617417146   -1.5216499729   -1.6081962941
C        2.1942385425   -0.7234049831   -0.5290747895
C        0.6626628674   -2.2520397478   -1.4648106763
C        1.0815261581   -0.8594184213    0.4997002853
C        0.5097471440   -2.2183613063    0.0652042724
H        6.5810674906    2.2967245933    0.2311722050
H        4.3258544252    3.3332845402    0.3310335779
H        6.8044842405   -0.1359119946   -0.2180266385
H        2.3041401309    1.9403619001   -0.0135795343
H        4.7809030527   -1.5265829753   -0.5585568744
H        2.6490957736   -1.6412978871   -2.4378544155
H        0.6977995905   -3.2738297994   -1.8555159440
H       -0.1370225008   -1.6819916727   -1.9492747046
H        0.3466383650   -0.0607901527    0.3576181563
H        1.4467037588   -0.8728081966    1.5314702677
H       -0.5155443793   -2.3910001167    0.4074266544
H        1.1539603193   -3.0002300970    0.4816826288
23   

C        5.6998644809    1.6832678087    0.0959346071
C        4.4271319804    2.2239238349    0.2976525469
C        5.8330823512    0.3509393215   -0.3044631741
C        3.2903226880    1.4312886120    0.1007393514
C        4.6942988650   -0.4394527255   -0.5007548268
C        3.4092259711    0.0860422064   -0.2939578817
C        2.0303948118   -1.6369282680   -1.5399185988
C        2.2093248496   -0.7377691223   -0.5305899238
C        0.7053116375   -2.3237748893   -1.4210490424
C        1.0170345369   -0.7455788117    0.4153739512
C        0.4445489748   -2.1319612839    0.0817928735
H        6.5811639467    2.2962688474    0.2473746755
H        4.3194028445    3.2582442706    0.6037553662
H        6.8187545450   -0.0711081367   -0.4639518793
H        2.3071776275    1.8613285230    0.2506019088
H        4.8084563192   -1.4714053175   -0.8104960247
H        2.7672473553   -1.8535531745   -2.3047209656
H        0.7411845176   -3.3804683154   -1.7039962635
H       -0.0422518415   -1.7905730609   -2.0177173145
H        0.3153260922    0.0458361252    0.1335488093
H        1.3009071847   -0.6568078787    1.4687827948
H       -0.6065280834   -2.2507022536    0.3633432741
H        1.0381993597   -2.8776965345    0.6215940177
23   

C        5.6957670594    1.6864294379    0.1002397060
C        4.4269914479    2.1640923390    0.4370869863
C        5.8339142967    0.4048930270   -0.4384769130
C        3.2988524127    1.3603006975    0.2353977367
C        4.7042809486   -0.3972709531   -0.6394878139
C        3.4209505649    0.0658961469   -0.3031922162
C        2.0803914394   -1.7493883614   -1.4652953860
C        2.2279696074   -0.7665864348   -0.5296377703
C        0.7308195842   -2.3906594956   -1.3693359478
C        0.9755226386   -0.6562886704    0.3280681760
C        0.3826382848   -2.0529647322    0.0884723637
H        6.5700289504    2.3085036269    0.2554433509
H        4.3151405181    3.1590574200    0.8526191628
H        6.8168957241    0.0306114285   -0.7007354891
H        2.3217756028    1.7500394762    0.4939948913
H        4.8304774327   -1.3902645153   -1.0529853352
H        2.8474233542   -2.0512655078   -2.1686150441
H        0.7531186132   -3.4698090527   -1.5507302769
H        0.0378630311   -1.8984447976   -2.0597679255
H        0.3183768696    0.1215144448   -0.0738051891
H        1.1898981800   -0.4765314102    1.3863277150
H       -0.6871892508   -2.1185306782    0.3105101941
H        0.9182930691   -2.7589590612    0.7323785095
23   

C        5.6947107680    1.6944855557    0.0996311572
C        4.4420018864    2.0987745796    0.5654500424
C        5.8244030570    0.4753462466   -0.5686727512
C        3.3210436618    1.2850893368    0.3627961628
C        4.7026075085   -0.3373353107   -0.7707929864
C        3.4325919138    0.0533148632   -0.3090337852
C        2.1246076428   -1.8513124026   -1.3733504955
C        2.2461631201   -0.7920407375   -0.5187855407
C        0.7528723586   -2.4478909417   -1.3107659180
C        0.9427880510   -0.5740788432    0.2370283480
C        0.3210439576   -1.9698215123    0.0825922710
H        6.5629344680    2.3246628872    0.2560669787
H        4.3365647086    3.0453528627    1.0831663314
H        6.7954055778    0.1569121187   -0.9304449578
H        2.3615433077    1.6294495677    0.7277208918
H        4.8315039442   -1.2808327727   -1.2853463111
H        2.9166691966   -2.2348068638   -2.0047751828
H        0.7540072649   -3.5393778434   -1.3922937338
H        0.1215451282   -2.0044880910   -2.0879132966
H        0.3394368463    0.1824526488   -0.2749104572
H        1.0873835766   -0.3116192440    1.2897350078
H       -0.7626268377   -1.9862935791    0.2359515430
H        0.7898085095   -2.6283943227    0.8218804941
23   

C        5.6966326447    1.7040459419    0.0909193957
C        4.4764699000    2.0273537589    0.6868259865
C        5.7967987750    0.5600858479   -0.7024794190
C        3.3582652788    1.2080694924    0.4905651557
C        4.6784587983   -0.2586394314   -0.8984136537
C        3.4395211056    0.0501590050   -0.3058373391
C        2.1688976951   -1.9405403039   -1.2601457241
C        2.2580617444   -0.8081433185   -0.4991277687
C        0.7812406059   -2.5016041769   -1.2473936841
C        0.9101780687   -0.4979625792    0.1382523226
C        0.2601896489   -1.8871801944    0.0578782157
H        6.5621829373    2.3389144875    0.2431767922
H        4.3939037630    2.9159592059    1.3022531803
H        6.7422756421    0.3049224547   -1.1673394532
H        2.4306475513    1.4995917817    0.9649254125
H        4.7885358703   -1.1392112992   -1.5174056499
H        2.9906266736   -2.3993082759   -1.7956776869
H        0.7592964913   -3.5957571826   -1.2278016325
H        0.2213517419   -2.1206787322   -2.1079132819
H        0.3672643994    0.2268514133   -0.4768343157
H        0.9769297793   -0.1591163203    1.1762648115
H       -0.8319635653   -1.8650188565    0.1275643824
H        0.6515387634   -2.4866164232    0.8870624990
23   

C        5.7164744750    1.7159943122    0.0826716815
C        4.5492209124    1.9500220033    0.8117162498
C        5.7607630151    0.6626724451   -0.8320910530
C        3.4279244986    1.1318844830    0.6278450680
C        4.6395804294   -0.1549086336   -1.0154486803
C        3.4543747442    0.0641956737   -0.2890751920
C        2.2240243049   -1.9976780707   -1.1291185698
C        2.2742189628   -0.7995502354   -0.4736592417
C        0.8304810578   -2.5419252037   -1.1694211279
C        0.8901452267   -0.4153842120    0.0318861634
C        0.2218107442   -1.7987883003    0.0266878046
H        6.5842527720    2.3499131623    0.2259431309
H        4.5108435587    2.7672192867    1.5229919579
H        6.6641583266    0.4782380127   -1.4021643992
H        2.5469709020    1.3496159194    1.2156758377
H        4.6994095574   -0.9602085163   -1.7361295982
H        3.0796877596   -2.5121341858   -1.5490537959
H        0.7888475809   -3.6287509202   -1.0463287474
H        0.3441004708   -2.2412962041   -2.1032504348
H        0.4087102153    0.2570162127   -0.6853698430
H        0.8763091380    0.0131658553    1.0372492795
H       -0.8718243733   -1.7570942012    0.0070835327
H        0.5349174470   -2.3223559290    0.9365150180
23   

C        5.7118958056    1.7122021349    0.0766779859
C        4.6054931114    1.8531708847    0.9172280218
C        5.6921530236    0.7545617793   -0.9395822446
C        3.4807989648    1.0381480536    0.7413303565
C        4.5669245901   -0.0595811761   -1.1139909904
C        3.4431219064    0.0702795317   -0.2797042664
C        2.2558970506   -2.0535612770   -0.9952752255
C        2.2651530760   -0.7983991961   -0.4587912149
C        0.8650246177   -2.6009523719   -1.0760759179
C        0.8517030630   -0.3605040485   -0.1013692837
C        0.1783761054   -1.7384703286   -0.0069806848
H        6.5830167748    2.3429633268    0.2134198673
H        4.6184484984    2.5928718364    1.7095931702
H        6.5484402525    0.6420672517   -1.5947395409
H        2.6448120800    1.1632969181    1.4166950376
H        4.5669095818   -0.7921782211   -1.9117064877
H        3.1419085441   -2.6003300499   -1.2958594395
H        0.8086472893   -3.6693734909   -0.8451095936
H        0.4462700173   -2.3988351204   -2.0674371938
H        0.4301365966    0.2264787507   -0.9236030125
H        0.7707175251    0.1855144060    0.8419755014
H       -0.9110111475   -1.7013406401   -0.1070714583
H        0.4251542315   -2.1631916412    0.9721040966
23   

C        5.7102549069    1.7097891534    0.0786257156
C        4.6683534310    1.7506786905    1.0088833741
C        5.6256620025    0.8521347405   -1.0213833584
C        3.5426793145    0.9364979462    0.8367961046
C        4.4989229836    0.0387612179   -1.1909871867
C        3.4396109017    0.0748100277   -0.2706976421
C        2.2809296029   -2.1018337221   -0.8545017330
C        2.2654581360   -0.8032193318   -0.4396165551
C        0.8917708329   -2.6474765463   -0.9747001242
C        0.8376129369   -0.3191486278   -0.2340058953
C        0.1431678737   -1.6772051963   -0.0466842906
H        6.5827072502    2.3395380535    0.2114407724
H        4.7329032687    2.4104383496    1.8666064416
H        6.4329846524    0.8159812677   -1.7439020124
H        2.7488598790    0.9691178035    1.5728875280
H        4.4422621896   -0.6220380165   -2.0478031114
H        3.1830137457   -2.6725634946   -1.0427650186
H        0.8071927510   -3.6868348889   -0.6421364894
H        0.5435365965   -2.5445924254   -2.0077429880
H        0.4843378112    0.1810836287   -1.1413539627
H        0.7095824551    0.3287891916    0.6378453476
H       -0.9363396242   -1.6452610837   -0.2250076442
H        0.3177827367   -2.0012975744    0.9849860894
23   

C        5.7080446309    1.7093148556    0.0828015052
C        4.7419096565    1.6383724526    1.0905437607
C        5.5476813734    0.9624729826   -1.0880278399
C        3.6157112069    0.8238209809    0.9242837420
C        4.4202825634    0.1484899122   -1.2510685303
C        3.4370423665    0.0768424907   -0.2538317657
C        2.2890256546   -2.1396129604   -0.7002943038
C        2.2632693699   -0.8078743272   -0.4153209700
C        0.9027048520   -2.6802932735   -0.8684884486
C        0.8345858116   -0.2877179694   -0.3678701500
C        0.1042848428   -1.6134460827   -0.1003204834
H        6.5809793707    2.3394925872    0.2102917304
H        4.8656461981    2.2114964922    2.0023223498
H        6.2969150620    1.0122259915   -1.8698735450
H        2.8743671633    0.7647135253    1.7123554592
H        4.3019248435   -0.4307671710   -2.1592596908
H        3.1949557701   -2.7309236749   -0.7695359158
H        0.7757432915   -3.6799755217   -0.4412811592
H        0.6330298960   -2.6786306180   -1.9297711224
H        0.5589154766    0.1246692878   -1.3436836441
H        0.6635207988    0.4461289170    0.4256471381
H       -0.9583378073   -1.5884590413   -0.3617809295
H        0.1961444166   -1.8344673122    0.9685778753
23   

C        5.7069268211    1.7081712256    0.0888747903
C        4.8291854292    1.5055795270    1.1580356800
C        5.4612496388    1.0879033702   -1.1398805154
C        3.7061961241    0.6858448357    0.9954004053
C        4.3372192570    0.2683436836   -1.2984558635
C        3.4445102499    0.0644123029   -0.2375125344
C        2.2777254518   -2.1741674998   -0.5293848274
C        2.2654146535   -0.8187333144   -0.4041561714
C        0.8937083212   -2.7039262391   -0.7451307419
C        0.8530743617   -0.2675306500   -0.5254935841
C        0.0687382070   -1.5404381141   -0.1680169953
H        6.5769773440    2.3430070986    0.2129122441
H        5.0182855851    1.9815809241    2.1134330069
H        6.1412336512    1.2405728203   -1.9701963689
H        3.0293945933    0.5257998548    1.8264961503
H        4.1504380158   -0.2133224474   -2.2511177716
H        3.1703027880   -2.7850122694   -0.4560283181
H        0.7062646225   -3.6454584650   -0.2194477659
H        0.7064473401   -2.8187683067   -1.8179002592
H        0.6621114787    0.0370297001   -1.5594074951
H        0.6478911756    0.5549336465    0.1668126155
H       -0.9699589721   -1.5259080661   -0.5130592473
H        0.0730879909   -1.6388068592    0.9229061307
23   

C        5.7076550562    1.7143762329    0.0998449818
C        4.9332282039    1.3507959450    1.2056500176
C        5.3667725752    1.2452107130   -1.1724370907
C        3.8195270993    0.5196815908    1.0366584415
C        4.2524012395    0.4136893695   -1.3367531835
C        3.4681396699    0.0426152271   -0.2364538470
C        2.2543582102   -2.1909835974   -0.3551130766
C        2.2821843361   -0.8317888254   -0.4169077549
C        0.8711598435   -2.7076317326   -0.6045380161
C        0.9008259448   -0.2623437947   -0.7007623089
C        0.0502639255   -1.4577799394   -0.2411740310
H        6.5699810131    2.3587580451    0.2285087098
H        5.1939934588    1.7125110665    2.1937189289
H        5.9644416407    1.5255282705   -2.0322791094
H        3.2189089538    0.2392799347    1.8940301153
H        3.9891363367    0.0520730131   -2.3238506193
H        3.1147822671   -2.8085091107   -0.1237222872
H        0.6138935693   -3.5685486786    0.0204246950
H        0.7556198494   -2.9542836425   -1.6651673328
H        0.7866320967   -0.0864627573   -1.7750666985
H        0.6825121190    0.6468422828   -0.1318152942
H       -0.9614895631   -1.4609765294   -0.6589080878
H       -0.0228623269   -1.4141757037    0.8508318189
23   

C        5.6952066817    1.7204511986    0.1125923690
C        5.0283500918    1.1930264939    1.2223410976
C        5.2568791889    1.4042028641   -1.1768127958
C        3.9263489223    0.3491941337    1.0401660595
C        4.1546013540    0.5593451577   -1.3541527719
C        3.4830149147    0.0170012399   -0.2500041438
C        2.2156175213   -2.1860281002   -0.1936422536
C        2.2960650298   -0.8501953583   -0.4424731742
C        0.8358390304   -2.6976564024   -0.4700948774
C        0.9529046346   -0.2895329777   -0.8851059800
C        0.0360897850   -1.3908420109   -0.3282736726
H        6.5481187951    2.3751509734    0.2515281097
H        5.3622254945    1.4391080334    2.2238827647
H        5.7687870053    1.8144977561   -2.0397868838
H        3.4059315681   -0.0532415709    1.9013627041
H        3.8141926254    0.3198621546   -2.3547200033
H        3.0328512053   -2.7845879280    0.1924044976
H        0.5096507795   -3.4625935803    0.2415277491
H        0.7818610126   -3.0781344520   -1.4955090415
H        0.9082710694   -0.2555138276   -1.9782181232
H        0.7318434183    0.6927063409   -0.4556813437
H       -0.9475799288   -1.4244547719   -0.8072458633
H       -0.1023859009   -1.2001168245    0.7413999466
23   

C        5.6866646950    1.7274079871    0.1228391238
C        5.1242553957    1.0570939694    1.2129129401
C        5.1474512559    1.5513344826   -1.1548365985
C        4.0265358129    0.2095543460    1.0225660558
C        4.0498190746    0.7024137780   -1.3411678899
C        3.4840031792    0.0134044768   -0.2588623392
C        2.1737980502   -2.1484965549   -0.0572756746
C        2.3008388837   -0.8513616009   -0.4529803963
C        0.8051926865   -2.6710332319   -0.3663883393
C        0.9990084558   -0.3301332469   -1.0435278310
C        0.0254204539   -1.3465319779   -0.4257448571
H        6.5362796304    2.3849321205    0.2684759314
H        5.5353875521    1.1958183945    2.2063110809
H        5.5775921130    2.0736392243   -2.0017678206
H        3.5867021948   -0.3003282751    1.8716163012
H        3.6327393746    0.5734187555   -2.3329522993
H        2.9484415943   -2.7092240761    0.4532158954
H        0.4179804007   -3.3457984328    0.4034880923
H        0.8102547436   -3.1647591399   -1.3438071240
H        1.0238003309   -0.4230776226   -2.1338476631
H        0.7707556528    0.6981523250   -0.7457945717
H       -0.9263684031   -1.4215246918   -0.9611071358
H       -0.1762493396   -1.0322810228    0.6039994690
23   

C        5.6791275590    1.7308041813    0.1299962247
C        5.2140504429    0.9462435923    1.1886831603
C        5.0406845521    1.6704242671   -1.1116541812
C        4.1142715815    0.1004074410    1.0029612280
C        3.9412325474    0.8231504284   -1.2943012555
C        3.4691876097    0.0196370864   -0.2447253227
C        2.1207482613   -2.1023992161    0.0732684912
C        2.2924859941   -0.8486042713   -0.4338548388
C        0.7717377332   -2.6464442206   -0.2815920455
C        1.0423499095   -0.3878491906   -1.1694172031
C        0.0143109464   -1.3308766403   -0.5251214038
H        6.5305343542    2.3867244629    0.2723700354
H        5.7025742928    0.9947576808    2.1551744566
H        5.3959796059    2.2806933840   -1.9341241731
H        3.7533673609   -0.4957200049    1.8325864311
H        3.4525157619    0.7852722028   -2.2605744000
H        2.8495165156   -2.6196768260    0.6865642174
H        0.3227308333   -3.2408504492    0.5203009073
H        0.8405806122   -3.2332564423   -1.2035791280
H        1.1451852160   -0.5933709747   -2.2396247604
H        0.8031030259    0.6662380740   -0.9967241400
H       -0.8983854795   -1.4532135712   -1.1168560110
H       -0.2548401943   -0.9148219401    0.4518049377
23   

C        5.7053866339    1.7361130280    0.0561678099
C        5.0121511917    1.7604512083   -1.1560059962
C        5.2388678180    0.9408650803    1.1052975954
C        3.8531983778    0.9920259600   -1.3164087780
C        4.0793365548    0.1735503210    0.9425392438
C        3.3636531262    0.1897129285   -0.2672796349
C        1.1060772136   -0.3840130178   -1.2742295840
C        2.1527460967   -0.6308468774   -0.4338707671
C        0.0716493397   -1.4625492138   -1.1820656572
C        1.9406126267   -1.9410672215    0.3108802689
C        0.9369018459   -2.6106604141   -0.6399210259
H        6.6031872797    2.3307511485    0.1816874218
H        5.3730958888    2.3727365572   -1.9745058907
H        5.7748319549    0.9178054518    2.0472866360
H        3.3341630213    1.0143148519   -2.2667164805
H        3.7316709752   -0.4342113358    1.7690977523
H        1.0415476982    0.4641952265   -1.9454525564
H       -0.3830525463   -1.7065138860   -2.1473096315
H       -0.6965294402   -1.1767815341   -0.4558487918
H        1.4836579643   -1.7435145177    1.2858084793
H        2.8569178262   -2.5294595127    0.4220941369
H        0.3579974723   -3.4128182189   -0.1713677943
H        1.5006383176   -3.0300568682   -1.4803289170
23   

C        5.7041744831    1.7435252951    0.0606067935
C        4.9430435396    1.8737056394   -1.1018901578
C        5.3132021232    0.8334939705    1.0438361243
C        3.7936892227    1.0947467247   -1.2794182368
C        4.1632543085    0.0556877022    0.8643868329
C        3.3793782981    0.1687438242   -0.3003233518
C        1.1697790980   -0.4687894563   -1.3866691537
C        2.1709597129   -0.6530664534   -0.4754842674
C        0.1026796127   -1.5088842938   -1.2416209522
C        1.8821376580   -1.8757538466    0.3841812108
C        0.9060411579   -2.6149150604   -0.5429360507
H        6.5945031969    2.3463985371    0.1993779420
H        5.2429772871    2.5781409405   -1.8693074618
H        5.8999748887    0.7298291464    1.9494357909
H        3.2258679944    1.2109168931   -2.1936037104
H        3.8822719860   -0.6349065890    1.6496157577
H        1.1487748829    0.3117098553   -2.1373701350
H       -0.3097932798   -1.8390366211   -2.2001889884
H       -0.6926408271   -1.1334902393   -0.5891719667
H        1.3862594525   -1.5687361534    1.3106203142
H        2.7703794711   -2.4785416725    0.5978599136
H        0.2820773359   -3.3504915553   -0.0255077438
H        1.4969725529   -3.1318737949   -1.3068408458
23   

C        5.6942938290    1.7499716457    0.0641460661
C        4.8542904905    1.9846064601   -1.0241077162
C        5.3886115462    0.7274363645    0.9619918419
C        3.7135819957    1.1960431672   -1.2138379133
C        4.2471288028   -0.0599001657    0.7702996988
C        3.3840991549    0.1506362763   -0.3256557798
C        1.2336868429   -0.5614675285   -1.4899331482
C        2.1803592564   -0.6780998488   -0.5108310367
C        0.1310733334   -1.5570686451   -1.3065555297
C        1.8152727150   -1.8086268234    0.4413892663
C        0.8611415641   -2.6071630066   -0.4592345088
H        6.5781473749    2.3600065667    0.2126665444
H        5.0848188914    2.7796089385   -1.7240735168
H        6.0354457532    0.5430836695    1.8121715549
H        3.0827379815    1.4058818394   -2.0675625447
H        4.0439011928   -0.8353315007    1.4970276810
H        1.2700723180    0.1423781823   -2.3120547241
H       -0.2374124216   -1.9702467417   -2.2507700722
H       -0.6876969620   -1.1005326769   -0.7406481957
H        1.2888403384   -1.4043417695    1.3119323023
H        2.6674689223   -2.4219048748    0.7488386105
H        0.1882575559   -3.2700944203    0.0938466409
H        1.4719898063   -3.2143111102   -1.1361080064
