42

C     -0.98348   -0.40942    8.18627
C     -1.63701    0.75728    7.71011
C     -0.61481   -1.40660    7.30711
C     -1.90769    0.90326    6.36530
C     -0.52037   -2.29154    4.97896
C     -0.78773   -2.14128    3.63756
C     -1.80072    0.01267    4.04307
C     -0.87942   -1.28365    5.91567
C     -1.53713   -0.10650    5.43473
C     -1.43255   -0.97104    3.14507
C      0.28587    1.84312    0.04262
C      0.52865   -1.44855    0.67647
C      0.48792    3.16323    0.01450
C      0.10506    0.94840   -1.16484
C      0.11868    0.99602    1.29442
C     -0.89500   -0.12054   -0.67865
C     -0.73787   -1.52540   -1.27262
C     -0.51087   -0.32708    0.80648
C     -0.39694   -1.62615   -2.74838
C     -1.71200   -0.80835    1.66812
O      1.40992   -1.74001    1.44994
O      0.33797   -2.12919   -0.49260
H     -0.77479   -0.51272    9.24798
H     -1.92306    1.53650    8.41189
H     -0.11378   -2.30131    7.66994
H     -2.40837    1.79764    6.00058
H     -0.02403   -3.19061    5.33691
H     -0.49405   -2.92118    2.94150
H     -2.31370    0.90534    3.68855
H      0.59051    3.74229    0.92982
H      0.56824    3.70706   -0.92406
H     -0.22845    1.48600   -2.05594
H      1.06619    0.47493   -1.40626
H      1.07131    0.80117    1.79657
H     -0.52283    1.49603    2.02434
H     -1.92178    0.24144   -0.79210
H     -1.64175   -2.11209   -1.06930
H      0.53662   -1.10704   -2.97801
H     -1.20059   -1.17974   -3.34359
H     -0.28953   -2.67309   -3.04501
H     -2.09240   -1.75229    1.25997
H     -2.50605   -0.06603    1.53312
