41

C      9.15442   -0.65567   -1.48608
C      3.60377    4.06113   -3.02333
C      4.01754    4.48012   -1.75334
C      3.25222    2.72157   -3.24740
C      4.11148    3.57491   -0.68627
C      7.13903    2.14940   -0.46621
C      8.23845    0.27643   -0.93737
C      3.35242    1.80932   -2.20005
C      3.80087    2.23937   -0.94460
C      6.53718    1.12280    0.22357
C      2.93808    0.35773   -2.13011
C      3.60007   -0.13751   -0.82861
C      8.59767    1.21318   -4.58652
C      7.14000    3.18763   -3.97539
N      9.86176   -1.45497   -1.95058
N      8.18188    1.60474   -1.17812
N      7.23192   -0.02688   -0.08544
N      3.83622    1.12015   -0.04106
N      8.42219    2.46372   -3.81573
O      4.97913   -0.29770    1.70179
O      4.93472    2.26911    1.93923
O      9.01686    3.95112   -1.86743
O     10.46942    1.90015   -2.44184
S      4.98893    1.05294    1.15612
S      9.23610    2.64390   -2.43559
H      3.52094    4.78402   -3.82973
H      4.24719    5.52727   -1.57799
H      2.88826    2.40330   -4.22102
H      4.38518    3.91109    0.30779
H      6.91967    3.20617   -0.48691
H      1.84796    0.28717   -2.05731
H      3.25077   -0.23386   -2.99394
H      2.98693   -0.82048   -0.24390
H      4.55670   -0.62707   -1.04922
H      9.60580    0.82622   -4.45039
H      8.45405    1.46030   -5.63962
H      7.85836    0.46304   -4.28486
H      7.20302    4.16576   -3.50259
H      6.30531    2.61689   -3.55396
H      6.98157    3.32497   -5.04608
H      7.04284   -0.93923    0.33354
