42

C     -0.58924   -2.79846    7.47779
C     -0.16336   -3.78521    6.54945
C     -1.14480   -1.61796    7.03099
C     -0.30416   -3.57306    5.19435
C     -1.86870   -0.16755    5.13801
C     -2.00014    0.03755    3.78181
C     -1.03326   -2.12305    3.31273
C     -1.30050   -1.36974    5.63919
C     -0.87551   -2.36639    4.70251
C     -1.57458   -0.94268    2.84117
C      0.50648    2.04832    0.16194
C      0.59455   -1.28478    0.53690
C      0.76067    3.35568    0.26413
C      0.41670    1.26172   -1.12831
C      0.18073    1.11370    1.31691
C     -0.65645    0.19417   -0.83178
C     -0.47861   -1.16262   -1.52334
C     -0.42621   -0.14529    0.66020
C      0.00040   -1.15576   -2.96369
C     -1.71133   -0.67064    1.35924
O      1.38649   -1.66880    1.36467
O      0.50135   -1.86236   -0.69828
H     -0.47248   -2.97802    8.54348
H      0.27807   -4.70925    6.91376
H     -1.46938   -0.85995    7.74056
H      0.02836   -4.32463    4.48218
H     -2.20540    0.59105    5.84117
H     -2.44889    0.95975    3.41842
H     -0.69925   -2.88625    2.61463
H      0.79185    3.85506    1.23021
H      0.95596    3.96806   -0.61334
H      0.18703    1.88251   -1.99789
H      1.38235    0.77419   -1.31782
H      1.06615    0.84795    1.90249
H     -0.52407    1.58101    2.00892
H     -1.65671    0.60030   -1.01281
H     -1.41254   -1.73329   -1.45546
H      0.96305   -0.64833   -3.06129
H     -0.73221   -0.63957   -3.59321
H      0.11236   -2.17857   -3.33376
H     -2.05347   -1.57727    0.84752
H     -2.48556    0.08843    1.20115
