42

C     -7.51390    2.36297   -0.84502
C     -7.23972    1.38083   -1.83306
C     -6.65560    2.53376    0.22096
C     -6.11326    0.59111   -1.73640
C     -4.58399    1.87109    1.43727
C     -3.45725    1.08352    1.52638
C     -4.03551   -0.04704   -0.52451
C     -5.48552    1.73555    0.34681
C     -5.20697    0.74654   -0.65087
C     -3.15421    0.11292    0.52913
C      0.11722    2.13993   -0.72916
C      0.44310   -1.14509   -0.05922
C      0.24137    3.46954   -0.72084
C      0.18242    1.25002   -1.95049
C     -0.19637    1.26974    0.47696
C     -0.81608    0.11715   -1.63246
C     -0.46699   -1.26543   -2.19179
C     -0.66421   -0.08253   -0.10788
C      0.10010   -1.33053   -3.59780
C     -1.89126   -0.70991    0.61728
O      1.15527   -1.42252    0.87750
O      0.51764   -1.79926   -1.25371
H     -8.40515    2.97873   -0.93286
H     -7.92452    1.25391   -2.66748
H     -6.86501    3.28385    0.98030
H     -5.90478   -0.16225   -2.49303
H     -4.79959    2.60423    2.21127
H     -2.79354    1.18779    2.38125
H     -3.84208   -0.80720   -1.27978
H      0.15848    4.04311    0.19986
H      0.43403    4.02877   -1.63357
H     -0.04102    1.77755   -2.88102
H      1.19698    0.83865   -2.03957
H      0.67750    1.11997    1.11970
H     -0.97313    1.73428    1.08682
H     -1.82663    0.41936   -1.91575
H     -1.34572   -1.91942   -2.12557
H      1.01575   -0.74111   -3.68607
H     -0.63560   -0.94071   -4.30925
H      0.32922   -2.36436   -3.87058
H     -1.60661   -0.86237    1.66336
H     -2.07887   -1.70554    0.20020
