42

C     -0.84617   -0.98819    2.33259
C     -0.32288    2.60461   -2.33337
C      0.27499    1.33066   -2.18340
C     -0.55685    3.45942   -1.25071
C      0.48790    1.75546    0.14405
C      0.67325    0.87650   -0.92628
C      0.82882    1.55778    1.51423
C     -0.14166    3.01118    0.00881
C      0.38225    2.65946    2.20624
C     -1.72020   -1.18108   -1.63237
C      1.54940    0.29582    1.88192
C      0.81455   -1.64162   -1.45876
C     -0.77211   -2.35952    0.37389
C      1.30545   -0.46901   -0.58888
C     -0.61946   -2.10643   -1.12479
C      1.12471   -0.82831    0.91657
C      0.40785    2.97079    3.66642
C     -2.62846   -0.14578   -3.54799
N     -1.34103   -0.78178    3.37362
N     -0.19271    3.55007    1.28666
N     -0.28994   -1.20318    1.13953
O     -2.60975   -0.70625   -0.95697
O     -1.63191   -1.01808   -2.97468
H     -0.61981    2.92720   -3.32829
H      0.39994    0.71029   -3.06514
H     -1.04003    4.42235   -1.39616
H      2.63456    0.42057    1.77060
H      1.37110   -0.01191    2.91594
H      0.88752   -1.39525   -2.51977
H      1.48270   -2.49540   -1.28996
H     -1.81774   -2.52593    0.63166
H     -0.19601   -3.25639    0.64995
H      2.38967   -0.38698   -0.74886
H     -0.78104   -3.05803   -1.64687
H      1.75026   -1.71252    1.11989
H      0.99902    3.86870    3.88515
H     -0.60446    3.12875    4.05687
H      0.84310    2.13525    4.21823
H     -2.40865   -0.11483   -4.61541
H     -2.54976    0.84967   -3.10610
H     -3.62986   -0.54531   -3.37162
H     -0.65090    4.41315    1.54218
