46

C     -0.82533    4.04182    3.74417
C      1.73605   -2.22572    0.09706
C     -1.42909    3.21278    2.79634
C      0.55234   -1.60965    0.50063
C     -0.91127    3.74327    5.10744
C      1.89907   -0.10261    1.83759
C      5.24721   -1.85441   -0.64506
C     -2.20393    1.75338    4.56067
C      4.22069   -3.93294   -0.04009
C      6.20600   -4.01249   -1.18164
C      3.00758   -1.81216    0.52982
C      3.09582   -0.72419    1.43910
C      4.18005   -2.52861   -0.03467
C     -2.12145    2.05812    3.19447
C      0.64830   -0.52272    1.38164
C      6.24692   -2.62041   -1.21661
C     -1.60939    2.59934    5.49669
C      4.33632   -0.20298    2.02479
C     -1.78186    0.11727    1.50003
C     -4.13686    0.65083    2.34069
C     -3.81178    1.64592    1.26324
C     -2.70320    1.12750    2.17282
N      5.64677    1.09792    3.09219
N      5.19774   -4.66681   -0.59342
N      4.37802    0.98174    2.67840
N      5.53963   -0.81353    2.03369
N      6.34189    0.02309    2.71076
N     -0.47189    0.20202    1.86570
O     -2.23450   -0.69105    0.68422
F      7.29493   -2.01029   -1.83990
Cl    -1.73630    2.20876    7.20807
H     -0.27383    4.92191    3.42520
H      1.67473   -3.04688   -0.61276
H     -1.35303    3.44749    1.73792
H     -0.41012   -1.94125    0.13671
H     -0.44015    4.37783    5.85108
H      1.98541    0.72997    2.53155
H      5.30062   -0.77226   -0.66497
H     -2.72248    0.85714    4.88664
H      3.42366   -4.49128    0.44761
H      7.00491   -4.59803   -1.63390
H     -4.67157    1.00346    3.21746
H     -4.33750   -0.36927    2.03165
H     -3.79605    1.28679    0.23975
H     -4.11542    2.67836    1.40882
H     -0.23711    0.92424    2.53531
