61

C     -8.25036   -0.39285    5.31166
C     -6.70678   -1.32713    3.68301
C     -7.20533    0.28012    5.93178
C     -5.66223   -0.64958    4.30549
C    -10.73031   -3.71010    1.13265
C     -8.02164   -1.19956    4.17576
C     -5.91150    0.15483    5.41806
C     -9.68593   -4.09729    0.30983
C     -8.37484   -3.68559    0.66515
C     -9.27669   -2.61243    2.48494
C     -3.46958   -4.05018   -0.02056
C     -4.24521   -1.68922    0.30542
C     -4.89337   -4.48826   -0.38516
C     -5.66722   -2.12217   -0.07282
C      0.60668   -2.63722   -0.43595
C     -0.11514   -0.56023    0.72569
C     -0.83276   -2.79964   -0.92935
C     -1.53413   -0.80165    0.20273
C     -3.18334   -2.57442   -0.36780
C     -5.92410   -3.58829    0.29527
C      0.92899   -1.16208   -0.20306
N    -10.55354   -2.96275    2.23182
N     -8.19703   -2.93654    1.76998
N     -1.79840   -2.23492    0.02195
N     -4.48429    2.49199    5.32841
N     -9.13350   -1.83077    3.61649
N     -7.27845   -4.02066   -0.05233
O     -4.97416    1.35636    7.56388
O     -3.32119    0.30949    5.89042
O      2.21431   -0.96425    0.39875
S     -4.56470    1.02578    6.19428
Br    -9.99956   -5.15804   -1.25447
H     -9.25786   -0.30036    5.71121
H     -6.52141   -1.95757    2.82794
H     -7.38348    0.88405    6.81564
H     -4.64697   -0.76066    3.93711
H    -11.75109   -4.00791    0.90197
H     -3.30573   -4.17542    1.05648
H     -2.75980   -4.71316   -0.52152
H     -4.11892   -0.64286    0.01725
H     -4.11925   -1.74002    1.39543
H     -5.03036   -4.43739   -1.47518
H     -5.05200   -5.53120   -0.08849
H     -6.39851   -1.48252    0.42824
H     -5.81926   -2.00073   -1.15358
H      0.73663   -3.18092    0.50617
H      1.29397   -3.07103   -1.17473
H      0.05971    0.51520    0.83653
H     -0.00888   -1.01959    1.71437
H     -0.93942   -2.31995   -1.92407
H     -1.04045   -3.86170   -1.07112
H     -2.23331   -0.39481    0.93346
H     -1.68334   -0.23956   -0.74173
H     -3.30684   -2.44363   -1.46237
H     -5.82172   -3.69945    1.38004
H      0.88934   -0.63473   -1.17112
H     -4.72402    3.26191    5.95200
H     -3.53795    2.60344    4.96582
H    -10.02526   -1.65364    4.06356
H     -7.42126   -4.55068   -0.90252
H      2.88010   -1.37888   -0.17252
