29   

C        1.8469498781   -3.6870037826   -0.9167021063
C        0.8860076545   -3.5536668185    0.0716014536
C        5.3048526924    1.3358265981    0.0208593045
C        5.9518951616    1.1930933689   -1.1968299835
C        2.7237326145   -2.6357929466   -1.1750341934
C        0.7899121458   -2.3550760967    0.7724326564
C        4.2214471557    0.5016098410    0.2725020431
C        5.5091552541    0.2254161029   -2.0992177199
C        2.6735102619   -1.4065386280   -0.4628430914
C        1.6469081890   -1.2660116751    0.5149330792
C        3.7831421112   -0.4293819808   -0.6924102924
C        1.1434119817    1.1629678365    0.3369733559
C        0.8128477831   -0.0244541592    2.5278673084
N        4.4623654186   -0.5743732244   -1.8512594762
N        1.3595214681   -0.0420143996    1.1602552770
H        1.9280190725   -4.6103303683   -1.4789721824
H        0.2034920840   -4.3687173997    0.2836580590
H        5.6392526985    2.0592314105    0.7572088249
H        6.8039328359    1.8114990658   -1.4490221065
H        3.4815704717   -2.8097582183   -1.9307182758
H       -0.0032881530   -2.2641519657    1.5014050610
H        3.7385700005    0.5577002334    1.2370124541
H        6.0342515577    0.1123760040   -3.0404395080
H        1.4041977824    0.9801002321   -0.7098929937
H        1.7543150515    1.9914980545    0.7075517556
H        0.0886452790    1.4530997820    0.3699254703
H        1.0850811223    0.9089983214    3.0300033772
H        1.2246997358   -0.8516286066    3.1148320386
H       -0.2781924111   -0.1101363674    2.5027883729
29   

C        1.8997728550   -3.7430564332   -0.8397290550
C        0.8979936909   -3.5805023536    0.1062776077
C        5.3485990357    1.2322021342    0.1044380363
C        5.8521778184    1.2590872761   -1.1885000813
C        2.7837267482   -2.6967336512   -1.0951105839
C        0.7712023011   -2.3613423225    0.7703412003
C        4.3043678763    0.3522493895    0.3642378968
C        5.3079006569    0.4130173943   -2.1578663875
C        2.6941234735   -1.4565919458   -0.4191014052
C        1.6369080243   -1.2790541895    0.5145080442
C        3.7783665851   -0.4592762850   -0.6577745888
C        1.2526911293    1.1743804190    0.2976346552
C        0.7380014138    0.0142974098    2.4661573871
N        4.3001609627   -0.4334765302   -1.9010752518
N        1.3605606087   -0.0373295450    1.1325336076
H        2.0029112423   -4.6821123546   -1.3714660980
H        0.2085178036   -4.3905818946    0.3148395591
H        5.7578044547    1.8649638951    0.8851587470
H        6.6670417532    1.9211312458   -1.4525555210
H        3.5756886151   -2.8639236527   -1.8172026251
H       -0.0469676000   -2.2521702040    1.4685328397
H        3.8980702804    0.2765317226    1.3642408935
H        5.7180464691    0.4388208807   -3.1606245928
H        1.4714173217    0.9543868893   -0.7517109112
H        1.9484670293    1.9422873473    0.6482318815
H        0.2326773965    1.5685015482    0.3426262843
H        0.9856430508    0.9585626517    2.9608725740
H        1.1134914050   -0.7995878801    3.0945754197
H       -0.3503063122   -0.0678484140    2.3818620396
29   

C        1.9347116267   -3.8062497334   -0.7648328453
C        0.8989496603   -3.6087402541    0.1403313157
C        5.4053898438    1.1145059950    0.1573668909
C        5.7562368760    1.3131483526   -1.1714523628
C        2.8320740348   -2.7711162650   -1.0211511031
C        0.7528363072   -2.3682783421    0.7638727097
C        4.4033187829    0.1875543713    0.4190373692
C        5.1040996157    0.5889980270   -2.1739095143
C        2.7177184600   -1.5199625320   -0.3814660989
C        1.6331032205   -1.2986721885    0.5061115081
C        3.7813441371   -0.5063832564   -0.6318730151
C        1.3411204902    1.1656500980    0.2408460714
C        0.6971375293    0.0525962088    2.3991110065
N        4.1380335550   -0.3043151350   -1.9143957323
N        1.3699366422   -0.0388177004    1.0926170586
H        2.0495855740   -4.7609733489   -1.2653215032
H        0.1981006088   -4.4091373952    0.3483743639
H        5.8932974198    1.6572089516    0.9603623295
H        6.5306763023    2.0203042210   -1.4401903406
H        3.6478275638   -2.9409046371   -1.7158397710
H       -0.0869044930   -2.2342333252    1.4314965856
H        4.0876640588   -0.0129425108    1.4351407645
H        5.3912324425    0.7542496464   -3.2057288300
H        1.5198129729    0.9133062726   -0.8088294233
H        2.0997954334    1.8828239423    0.5672325973
H        0.3553335557    1.6378001899    0.2957354138
H        0.9376134289    1.0056501448    2.8804197380
H        1.0383038716   -0.7498852153    3.0608461304
H       -0.3880594048   -0.0183944230    2.2746403933
29   

C        1.9542860623   -3.8370211161   -0.6795154400
C        0.8856682331   -3.5987915234    0.1785084429
C        5.5090161501    0.9853674191    0.1971138885
C        5.7009283268    1.3607888743   -1.1263921607
C        2.8698958425   -2.8180958485   -0.9379519389
C        0.7268850476   -2.3360018384    0.7549152775
C        4.5354107321    0.0263781959    0.4508718437
C        4.9230692421    0.7760313816   -2.1307831508
C        2.7372984111   -1.5498919047   -0.3437834735
C        1.6264035381   -1.2835485427    0.4945676865
C        3.7936252875   -0.5290809385   -0.6023128492
C        1.4096719997    1.1837595569    0.1759747610
C        0.6676192649    0.1262053369    2.3313213276
N        3.9851715762   -0.1488208023   -1.8783368177
N        1.3745735515   -0.0064119121    1.0468213289
H        2.0775096770   -4.8091794258   -1.1430937804
H        0.1698351131   -4.3857418755    0.3868403610
H        6.0919139360    1.4221759619    1.0013780908
H        6.4448346751    2.1020367726   -1.3894693992
H        3.7077129483   -3.0074963267   -1.6003322612
H       -0.1337912507   -2.1719388742    1.3883683497
H        4.3274177700   -0.3024437622    1.4611991071
H        5.0836936648    1.0819948613   -3.1579062499
H        1.5345516357    0.9007448241   -0.8735922907
H        2.2287462002    1.8474112706    0.4674508908
H        0.4634785268    1.7286504047    0.2496541189
H        0.9107483470    1.0861627398    2.7973897634
H        0.9774664578   -0.6658809893    3.0204257414
H       -0.4147438027    0.0697084550    2.1783819705
29   

C        2.0004528507   -3.8559241441   -0.6152094055
C        0.8993485888   -3.5986040524    0.1958447226
C        5.6687633216    0.8087934933    0.1961872442
C        5.6955249385    1.3907242305   -1.0648637949
C        2.9164699609   -2.8375266376   -0.8756503663
C        0.7116782882   -2.3194388583    0.7265700878
C        4.6990631788   -0.1596711623    0.4287142272
C        4.7643508262    0.9931064423   -2.0295470460
C        2.7479762081   -1.5525159347   -0.3314225761
C        1.6123390347   -1.2690391655    0.4639839547
C        3.8007642451   -0.5217667704   -0.5846063487
C        1.3733718121    1.1849644638    0.0897862369
C        0.6375583314    0.1685133512    2.2678491788
N        3.8312553497    0.0582504442   -1.7972424269
N        1.3482684849    0.0161534700    0.9878940530
H        2.1475305141   -4.8421232913   -1.0406255998
H        0.1826178418   -4.3844725160    0.4051960187
H        6.3724970636    1.0981834717    0.9697844728
H        6.4273617310    2.1502736295   -1.3088721223
H        3.7788610332   -3.0394232477   -1.5014892981
H       -0.1686209910   -2.1411936401    1.3285761716
H        4.6157331509   -0.6439062765    1.3931968640
H        4.7964674926    1.4593550236   -3.0072796870
H        1.4185642235    0.8714523797   -0.9574286762
H        2.2332986025    1.8225482844    0.3137235212
H        0.4544987962    1.7675455041    0.2072284681
H        0.8753579895    1.1378347587    2.7170047118
H        0.9497037325   -0.6096702753    2.9715962038
H       -0.4441449924    0.1039135906    2.1137147842
29   

C        2.0273902964   -3.8397626899   -0.5274566635
C        0.8935148459   -3.5634889417    0.2304075251
C        5.8729998253    0.5719494127    0.1204014217
C        5.7547198885    1.3691844442   -1.0106777929
C        2.9429522819   -2.8219376725   -0.7925335742
C        0.6771247419   -2.2681210997    0.7077830361
C        4.8742617973   -0.3694084940    0.3417137889
C        4.6597743549    1.1996118590   -1.8635936615
C        2.7384016235   -1.5168157545   -0.3114322746
C        1.5784643829   -1.2201666268    0.4409067150
C        3.8010539589   -0.4901630182   -0.5520688742
C        1.2020873466    1.1923950233   -0.0187864310
C        0.6260199018    0.2380112579    2.2329220307
N        3.7004877330    0.2889410562   -1.6428202385
N        1.2930212642    0.0708578651    0.9318814104
H        2.2003365885   -4.8404203648   -0.9069456358
H        0.1763900398   -4.3480940787    0.4431463795
H        6.7083811140    0.6787570767    0.8046322069
H        6.4997065142    2.1206829490   -1.2392377219
H        3.8317583092   -3.0407050233   -1.3740162236
H       -0.2224609956   -2.0736087801    1.2755714524
H        4.9050275265   -1.0177596496    1.2078013157
H        4.5816720335    1.8296840071   -2.7418127593
H        1.2107076520    0.8288403245   -1.0507296605
H        2.0332459539    1.8878192093    0.1278779422
H        0.2578579511    1.7274416953    0.1211624978
H        0.8773652351    1.2135028846    2.6607699132
H        0.9628119141   -0.5312008825    2.9351393981
H       -0.4601321355    0.1686799700    2.1167663063
29   

C        2.0642211186   -3.8292708148   -0.4316965797
C        0.8897909786   -3.5328218762    0.2525026000
C        6.0371606611    0.3721420897   -0.0079764245
C        5.8129501809    1.3454175176   -0.9725168058
C        2.9862488283   -2.8150238661   -0.6884558082
C        0.6439239209   -2.2224821469    0.6694725465
C        5.0187965149   -0.5474102356    0.2159028216
C        4.5999564962    1.3615393390   -1.6672971028
C        2.7485589061   -1.4906342462   -0.2763564969
C        1.5531230807   -1.1799265895    0.4123991245
C        3.8190005471   -0.4725845785   -0.5076524980
C        0.9834163496    1.1659967712   -0.1340683219
C        0.6356377173    0.2971268742    2.1956400406
N        3.6235733801    0.4697050989   -1.4463316166
N        1.2374122583    0.1151878262    0.8655845192
H        2.2631207664   -4.8428114500   -0.7610189221
H        0.1664490303   -4.3137088250    0.4577539921
H        6.9671857418    0.3305467566    0.5494784844
H        6.5659783165    2.0911999028   -1.1931932449
H        3.9046835092   -3.0525519835   -1.2137853379
H       -0.2812901947   -2.0086333055    1.1873849969
H        5.1330884509   -1.3279499553    0.9568554352
H        4.4408396393    2.1258332033   -2.4188787055
H        1.0382396078    0.7596165024   -1.1487153404
H        1.7124471798    1.9747784359   -0.0313057785
H       -0.0241465461    1.5727842691   -0.0044098439
H        0.9107584937    1.2760022779    2.6003241088
H        1.0025419993   -0.4673362516    2.8878969935
H       -0.4550437146    0.2287506184    2.1338271603
29   

C        0.8186667047   -2.5525759504   -2.1797601552
C       -0.1023407814   -2.6013929751   -1.1403028073
C        5.8827761826    0.0024648646   -1.0023835654
C        5.6900407674    1.3654033400   -0.8143630114
C        1.9854102872   -1.8058535998   -2.0296467712
C        0.1590942088   -1.9196317632    0.0500654511
C        4.7520517622   -0.8067310124   -1.0008960769
C        4.3950259642    1.8639827992   -0.6388913801
C        2.2570034697   -1.0996067603   -0.8417958165
C        1.3395936364   -1.1733106599    0.2405221439
C        3.4803988700   -0.2467082653   -0.8034165243
C        0.4467928199   -0.1267122319    2.3387041815
C        2.9050539416   -0.6184769037    2.1362162485
N        3.3098066464    1.0782095624   -0.6385770791
N        1.5708379280   -0.5971997464    1.5132089243
H        0.6247850480   -3.0817540209   -3.1058444226
H       -1.0160184252   -3.1746048188   -1.2485351009
H        6.8745409171   -0.4138101684   -1.1465909992
H        6.5302101310    2.0481655427   -0.8061477339
H        2.6822131005   -1.7475385748   -2.8583525797
H       -0.5621157173   -2.0064529431    0.8507703006
H        4.8388763229   -1.8759568670   -1.1445166898
H        4.2613253124    2.9302080841   -0.4987370346
H       -0.3364127904    0.3038794636    1.7066511820
H        0.7837457031    0.6549560255    3.0266610408
H        0.0297651795   -0.9548958739    2.9201636669
H        3.3409319338    0.3846819131    2.1429791904
H        3.5757971390   -1.3015474348    1.6075681868
H        2.8275164946   -0.9823838335    3.1652715645
29   

C        0.9594383421   -2.6096217316   -2.1190066513
C       -0.0115545230   -2.6079359332   -1.1268228826
C        5.9470881513    0.0598618693   -1.1225612229
C        5.7678898216    1.3792525582   -0.7285254707
C        2.1290185868   -1.8748760380   -1.9383241364
C        0.2035998872   -1.8900749407    0.0501772045
C        4.8267117342   -0.7637894280   -1.1227492284
C        4.4960213207    1.8220627858   -0.3540448074
C        2.3613215605   -1.1280225333   -0.7636400196
C        1.3849277220   -1.1540145169    0.2749929348
C        3.5733740465   -0.2628370353   -0.7303870079
C        0.4091097993   -0.0635535800    2.3179451594
C        2.8689771180   -0.5767624407    2.2298667414
N        3.4211507261    1.0226625513   -0.3550344380
N        1.5619460159   -0.5602363371    1.5498283125
H        0.8007017824   -3.1661173211   -3.0357530658
H       -0.9286727354   -3.1701950244   -1.2604975341
H        6.9218532092   -0.3136117899   -1.4192507420
H        6.6009574778    2.0704338486   -0.7092842585
H        2.8534669694   -1.8539506751   -2.7444929347
H       -0.5568320389   -1.9423157587    0.8167936741
H        4.9145275771   -1.8014543204   -1.4168323792
H        4.3717574632    2.8549304690   -0.0505904323
H       -0.3481540025    0.3515164547    1.6453580023
H        0.7232626357    0.7360686600    2.9959951464
H       -0.0323790188   -0.8740523057    2.9062940895
H        3.3103198066    0.4242797573    2.2384328578
H        3.5574829779   -1.2715239043    1.7398335407
H        2.7470567061   -0.9165840734    3.2629013177
29   

C        1.0227375367   -2.7095277169   -2.0541854873
C        0.0170936715   -2.6447264403   -1.1019139671
C        5.9348473668    0.1204445290   -1.2949479801
C        5.7831927481    1.3826936686   -0.7395688637
C        2.1977056559   -1.9855461686   -1.8664869383
C        0.2043483584   -1.8765529484    0.0457353237
C        4.8288156948   -0.7224693824   -1.2790250020
C        4.5528060742    1.7496922995   -0.1904083915
C        2.4117910602   -1.1865116099   -0.7181655487
C        1.3902951325   -1.1512207640    0.2807733150
C        3.6066856804   -0.2966030312   -0.7211571715
C        0.3682965090    0.0312539433    2.2504037894
C        2.7954857175   -0.6260501373    2.2994706388
N        3.4927001344    0.9315758963   -0.1771672848
N        1.5309527246   -0.5343535858    1.5483440884
H        0.8851346083   -3.3032647813   -2.9507947413
H       -0.9052158710   -3.1966190434   -1.2429469286
H        6.8800602295   -0.1977139597   -1.7227364680
H        6.6066110593    2.0854046284   -0.7241793027
H        2.9307119761   -2.0127482693   -2.6636236455
H       -0.5825862870   -1.8828730151    0.7869528969
H        4.9176858761   -1.7203044532   -1.6863519417
H        4.4490076609    2.7372161939    0.2435796343
H       -0.3471629186    0.4456487891    1.5332183474
H        0.6855263834    0.8444073673    2.9106120763
H       -0.1246940929   -0.7405996059    2.8498061843
H        3.2550132736    0.3620442388    2.3980080882
H        3.5001691239   -1.2994380987    1.8024687456
H        2.6069102687   -1.0287606812    3.2992644108
29   

C        1.0739349486   -2.7958981662   -1.9588000273
C        0.0424705915   -2.6716583388   -1.0441324568
C        5.8987147336    0.2193817482   -1.4532276938
C        5.8004939936    1.4044828440   -0.7421024191
C        2.2519860085   -2.0762873693   -1.7748719383
C        0.2083115943   -1.8497933039    0.0663480095
C        4.8062880228   -0.6411584603   -1.4214136903
C        4.6362327084    1.6769858668   -0.0246522373
C        2.4550287211   -1.2195321700   -0.6608442599
C        1.3962359170   -1.1277420378    0.3014249714
C        3.6355797977   -0.3075149943   -0.7014551603
C        0.3305976086    0.1637688218    2.1781611174
C        2.7013069741   -0.6511947059    2.3888490585
N        3.5903264434    0.8419674762    0.0017265140
N        1.4982195191   -0.4785289407    1.5554075557
H        0.9534974205   -3.4311912477   -2.8290583885
H       -0.8827901261   -3.2187798869   -1.1844925773
H        6.7965426807   -0.0305777085   -2.0091648787
H        6.6162191356    2.1161456112   -0.7306186370
H        2.9833655769   -2.1605526476   -2.5670776590
H       -0.5986355967   -1.8121168820    0.7848346119
H        4.8888730767   -1.5819023163   -1.9450570324
H        4.5732397852    2.6022196194    0.5359565230
H       -0.3386136532    0.5668611720    1.4116664376
H        0.6523160926    0.9962147061    2.8115033201
H       -0.2163495234   -0.5589773628    2.7919044634
H        3.1811688780    0.3152701068    2.5710182736
H        3.4223221103   -1.3166121162    1.9043423992
H        2.4296892562   -1.0987814844    3.3496022138
29   

C        1.1237661152   -2.8959872076   -1.8595929656
C        0.0820425259   -2.7378735110   -0.9654219238
C        5.8013145843    0.3901592853   -1.6584914195
C        5.8312182048    1.4139529240   -0.7284791915
C        2.2939798273   -2.1580256130   -1.6996709011
C        0.2332269318   -1.8660093768    0.1054866977
C        4.7156066852   -0.4795986887   -1.6269855969
C        4.7934368553    1.5243708311    0.1926825835
C        2.4829041409   -1.2337196012   -0.6328496113
C        1.4110289171   -1.1211462592    0.3171637431
C        3.6679133062   -0.3207191881   -0.6821049408
C        0.3028778147    0.3173421508    2.0517804096
C        2.5597358990   -0.7052410176    2.4913086078
N        3.7549422636    0.6810903444    0.2162149382
N        1.4686918686   -0.4207892197    1.5429898890
H        1.0210717873   -3.5799961040   -2.6945306697
H       -0.8365224942   -3.3005361408   -1.0872054502
H        6.5974796302    0.2694615389   -2.3859503095
H        6.6481442672    2.1239143826   -0.7058539729
H        3.0274049706   -2.3160836955   -2.4748255183
H       -0.5780163906   -1.8027515552    0.8176943046
H        4.7265965650   -1.2756314420   -2.3524501235
H        4.8258941035    2.3250556624    0.9221599387
H       -0.3250699176    0.6602622833    1.2235714956
H        0.6316714665    1.1984808756    2.6111286051
H       -0.2918551925   -0.3231560941    2.7108219467
H        3.0636791149    0.2224679107    2.7795958924
H        3.2987195993   -1.3778948591    2.0447593091
H        2.1616574024   -1.1895206497    3.3880012968
29   

C        1.2198734124   -2.9915566661   -1.7876970432
C        0.2072572010   -2.8695315905   -0.8532547347
C        5.6113487361    0.6416094348   -1.9227664330
C        5.9273562132    1.3411672338   -0.7712971396
C        2.3516619918   -2.1851376670   -1.6911479847
C        0.3498499729   -1.9582879623    0.1870220735
C        4.5016814238   -0.1964003208   -1.8824697901
C        5.1291776508    1.1848048617    0.3593512795
C        2.5151548490   -1.2122444079   -0.6666934756
C        1.4848189032   -1.1357076651    0.3225339213
C        3.7300446921   -0.3439813381   -0.7017562832
C        0.3307882356    0.5097534497    1.7992897216
C        2.4069349614   -0.6795736597    2.5713459524
N        4.0663923503    0.3719312448    0.3884766887
N        1.4991294993   -0.3198446758    1.4694732973
H        1.1330432035   -3.7152166578   -2.5903637938
H       -0.6791070582   -3.4901482863   -0.9194160486
H        6.1999335280    0.7529026956   -2.8276139652
H        6.7763015573    2.0121845101   -0.7414647702
H        3.1087851238   -2.3582065776   -2.4425901851
H       -0.4342711942   -1.9050762149    0.9305444466
H        4.2395432845   -0.7005185844   -2.7992153701
H        5.3773379185    1.7431949453    1.2542733929
H       -0.2646722832    0.7080021975    0.9025031867
H        0.6574445460    1.4705824239    2.2082670566
H       -0.2998658241    0.0007129336    2.5351356466
H        2.9345052999    0.2089740122    2.9313782440
H        3.1502829708   -1.4103509988    2.2370374518
H        1.8422669655   -1.1232916680    3.3968305098
29   

C        1.2698525854   -3.0470472301   -1.7377715487
C        0.2727607824   -2.9578405014   -0.7784605295
C        5.4221666635    0.8492299186   -1.9378454685
C        5.9254618886    1.2981474358   -0.7271037179
C        2.3749063737   -2.2007696692   -1.6656227679
C        0.3971180435   -2.0290563777    0.2520640022
C        4.3082985995    0.0175508251   -1.8985455944
C        5.3034090932    0.9083739279    0.4594069992
C        2.5180303704   -1.2332908567   -0.6401466605
C        1.5030560572   -1.1656709845    0.3552134321
C        3.7231937656   -0.3583729363   -0.6691720454
C        0.3240313853    0.5798776684    1.6697168950
C        2.3086196930   -0.6302997058    2.6225784604
N        4.2338275198    0.1031775503    0.4870872721
N        1.4950608084   -0.2805597596    1.4467646531
H        1.1921676972   -3.7756631876   -2.5368278850
H       -0.5913126196   -3.6109195984   -0.8235204818
H        5.8728798006    1.1435937077   -2.8800242260
H        6.7881084763    1.9511305045   -0.6908670493
H        3.1406722989   -2.3226870104   -2.4217415673
H       -0.3785355533   -1.9823651336    1.0050933330
H        3.8774072858   -0.3156237996   -2.8321240252
H        5.7019660699    1.2701137671    1.3999239448
H       -0.2284595696    0.7245210455    0.7358745909
H        0.6444864049    1.5620183086    2.0301286161
H       -0.3461942100    0.1262409607    2.4067802716
H        2.8641237223    0.2455086008    2.9711855057
H        3.0266233952   -1.4188045163    2.3753620828
H        1.6683189612   -0.9974865746    3.4303532078
29   

C        1.3298044358   -3.1290519732   -1.6663349299
C        0.3230005688   -3.0307797093   -0.7144071664
C        5.2634864284    1.0065835647   -1.8999941220
C        5.9129271157    1.2729835471   -0.7033459096
C        2.4231404176   -2.2658641853   -1.6052504746
C        0.4215141768   -2.0716012055    0.2935550933
C        4.1562121669    0.1670401414   -1.8510484114
C        5.4394360668    0.6988214823    0.4787539613
C        2.5402204025   -1.2863573189   -0.5942492660
C        1.5156377166   -1.1928646973    0.3818408038
C        3.7219663395   -0.3814695332   -0.6292212033
C        0.3138278565    0.5974748166    1.6063025235
C        2.3027181157   -0.5478939668    2.6250590541
N        4.3741048070   -0.1126235608    0.5161220552
N        1.4982029052   -0.2550558552    1.4276321372
H        1.2667282455   -3.8745578400   -2.4509279108
H       -0.5314773774   -3.6968626110   -0.7511778334
H        5.6017197069    1.4402324230   -2.8354086518
H        6.7792652110    1.9214156662   -0.6739439341
H        3.2013210497   -2.3674761053   -2.3530542588
H       -0.3637067644   -2.0106066417    1.0355223816
H        3.6087185418   -0.0536233561   -2.7576407736
H        5.9560691897    0.9156255031    1.4063185368
H       -0.2164127719    0.7190720027    0.6563965262
H        0.6161922632    1.5896328138    1.9549028261
H       -0.3698193173    0.1519418752    2.3358891650
H        2.8942633480    0.3282256506    2.9067375792
H        2.9853952408   -1.3831184844    2.4387814617
H        1.6517223617   -0.8275716413    3.4589780513
29   

C        1.3662516762   -3.1979830908   -1.6127464481
C        0.3277230292   -3.0620484903   -0.6980709291
C        5.1257525361    1.1397502919   -1.8134962592
C        5.9102801829    1.2322393332   -0.6720881790
C        2.4632625804   -2.3397181299   -1.5423060075
C        0.3968830594   -2.0699280140    0.2818364098
C        4.0207208095    0.2977545836   -1.7593914678
C        5.5683869051    0.4893038790    0.4613288710
C        2.5493869017   -1.3370278212   -0.5557260853
C        1.4956787001   -1.1978159683    0.3785327543
C        3.7216987453   -0.4154451732   -0.5864324380
C        0.2623323720    0.5979997987    1.5688753117
C        2.3248270607   -0.4255626262    2.5690279864
N        4.5030828741   -0.3228282442    0.5039589801
N        1.4713613450   -0.2192578776    1.3873350110
H        1.3231838962   -3.9661591112   -2.3765247810
H       -0.5297056676   -3.7238118027   -0.7430959435
H        5.3625201210    1.7030271584   -2.7102092479
H        6.7830470113    1.8722738438   -0.6490537265
H        3.2663634606   -2.4527723174   -2.2620312562
H       -0.4133848268   -1.9811518130    0.9932407746
H        3.3703252074    0.1926305069   -2.6178811639
H        6.1918796992    0.5697643873    1.3439925248
H       -0.2725974934    0.7042546015    0.6197548893
H        0.5361388564    1.5990958646    1.9157441947
H       -0.4057511823    0.1337678003    2.3011802480
H        2.9551336451    0.4519502295    2.7398883279
H        2.9682217727   -1.3010900899    2.4363422375
H        1.7067188717   -0.6029256479    3.4544429977
29   

C        1.4054316505   -3.2662514655   -1.5740170367
C        0.3275840980   -3.0811334022   -0.7141571252
C        4.9971773706    1.2842080680   -1.6889739296
C        5.9130887546    1.2009197669   -0.6487791904
C        2.5084107413   -2.4171366956   -1.4883677871
C        0.3640026474   -2.0514658324    0.2290906826
C        3.8963356967    0.4368175655   -1.6359084263
C        5.6989467222    0.2871787071    0.3873524564
C        2.5583084555   -1.3783464323   -0.5403298445
C        1.4700021642   -1.1892996477    0.3425913224
C        3.7321844934   -0.4523649052   -0.5630165356
C        0.1920718210    0.5834841087    1.5369104875
C        2.3829621702   -0.2459752997    2.4402478437
N        4.6351801115   -0.5277637429    0.4298529536
N        1.4341046697   -0.1735271911    1.3166729566
H        1.3873201680   -4.0637993193   -2.3080900198
H       -0.5349817349   -3.7351412878   -0.7724210524
H        5.1327881385    1.9819632566   -2.5088432966
H        6.7907614856    1.8344048813   -0.6307550889
H        3.3421877735   -2.5592595740   -2.1669869087
H       -0.4770111957   -1.9320034521    0.8987459851
H        3.1462416069    0.4570575584   -2.4158194245
H        6.4240328464    0.2321707679    1.1908185631
H       -0.3676813006    0.6783148498    0.6009982998
H        0.4262355045    1.5920123011    1.8914438915
H       -0.4357294126    0.0796551232    2.2785972815
H        3.0365297713    0.6309251644    2.4449973622
H        2.9959173078   -1.1502085107    2.3747905437
H        1.8395022992   -0.2936175707    3.3888429470
29   

C        1.4312398899   -3.3498649843   -1.5140985505
C        0.3204492267   -3.1140513115   -0.7097707519
C        4.8666229795    1.4338191683   -1.4673016066
C        5.9026892483    1.1663975358   -0.5818420578
C        2.5374181328   -2.5055098872   -1.4248021741
C        0.3285396018   -2.0423013156    0.1868813952
C        3.7698850010    0.5800254930   -1.4387212018
C        5.8048952115    0.0743665773    0.2859806881
C        2.5532663036   -1.4205297239   -0.5308131465
C        1.4388224997   -1.1851560542    0.3065367206
C        3.7324648196   -0.4984879779   -0.5440002479
C        0.1292374226    0.5682901864    1.5125431282
C        2.4364283376   -0.0600215594    2.2844332363
N        4.7432194702   -0.7445978075    0.3071445598
N        1.3946507892   -0.1338399902    1.2456375381
H        1.4361926715   -4.1825606674   -2.2082383847
H       -0.5449600631   -3.7638723898   -0.7724374590
H        4.9089031121    2.2741880663   -2.1524551077
H        6.7845335145    1.7937991140   -0.5551376855
H        3.3984520751   -2.6837231873   -2.0594772659
H       -0.5377224752   -1.8928578784    0.8167580795
H        2.9271935399    0.7368697286   -2.0995372667
H        6.6215516913   -0.1207233869    0.9710867670
H       -0.4584131772    0.6566304397    0.5932522046
H        0.3313830168    1.5799677957    1.8778678983
H       -0.4560343376    0.0282429055    2.2634198649
H        3.0789888828    0.8098563709    2.1220074139
H        3.0477707383   -0.9674418254    2.2869216289
H        1.9751648796    0.0145438772    3.2739309659
29   

C        1.4802669631   -3.4256783075   -1.4990547370
C        0.3414885904   -3.1534653089   -0.7470485451
C        4.7933846442    1.5542497409   -1.1856998602
C        5.9266723764    1.1171393477   -0.5117487164
C        2.5850761040   -2.5802517644   -1.4057343583
C        0.3215106554   -2.0476130541    0.1072397768
C        3.6950040106    0.7024047437   -1.2010771257
C        5.9187855431   -0.1326856530    0.1156773899
C        2.5690204850   -1.4542970481   -0.5644046727
C        1.4305544742   -1.1887652107    0.2332051341
C        3.7544909867   -0.5434834537   -0.5614832982
C        0.0907201923    0.5487955117    1.4400318648
C        2.4611815861    0.0681996328    2.1244956147
N        4.8546742695   -0.9487047579    0.0968684957
N        1.3724435689   -0.1130418444    1.1471814417
H        1.5087319115   -4.2879864157   -2.1554197111
H       -0.5229088830   -3.8041850269   -0.8141260588
H        4.7633769102    2.5207577120   -1.6780412950
H        6.8152281112    1.7338028489   -0.4644775762
H        3.4701069307   -2.7876014163   -1.9972429698
H       -0.5657891974   -1.8782019678    0.7014708695
H        2.7765305723    0.9870068033   -1.6981328758
H        6.8097477176   -0.4574045787    0.6402026837
H       -0.5150875487    0.6243013201    0.5314285317
H        0.2672562360    1.5645680838    1.8073387039
H       -0.4638113425   -0.0122514543    2.1988031219
H        3.0453867643    0.9616965405    1.8868021530
H        3.1224915150   -0.8032793763    2.1379941504
H        2.0470738680    0.1679114977    3.1325095340
29   

C        1.5057948786   -3.4732598857   -1.4386206064
C        0.3455359214   -3.1700565781   -0.7338131191
C        4.7633014157    1.6074557635   -0.9545960062
C        5.9630187971    1.0591758682   -0.5192962952
C        2.6092464685   -2.6265329699   -1.3448224374
C        0.3039847379   -2.0338751008    0.0782410667
C        3.6509428226    0.7741102765   -0.9663419543
C        6.0054293443   -0.2789648970   -0.1151037457
C        2.5725415070   -1.4650597727   -0.5519680131
C        1.4116272999   -1.1728724273    0.2061564846
C        3.7603927920   -0.5630052642   -0.5562964852
C        0.0475372354    0.5744420528    1.3751695214
C        2.4204239383    0.1375155375    2.0773652369
N        4.9277628051   -1.0771936326   -0.1290380705
N        1.3375062206   -0.0791856569    1.0993809748
H        1.5525789761   -4.3605651547   -2.0596532981
H       -0.5180923577   -3.8216507765   -0.8022316664
H        4.6940535730    2.6430962498   -1.2709288079
H        6.8656090595    1.6561643059   -0.4878719149
H        3.5105503248   -2.8592424669   -1.9016490330
H       -0.5994932097   -1.8454337760    0.6414126350
H        2.6830924480    1.1414733524   -1.2832966777
H        6.9488083464   -0.6904506155    0.2241778414
H       -0.5539834317    0.6308582159    0.4623388595
H        0.2117872169    1.5971125576    1.7287486427
H       -0.5055991326    0.0190809025    2.1391756502
H        2.9419702208    1.0761347661    1.8693765430
H        3.1416318364   -0.6850855078    2.0557037537
H        2.0074450400    0.1738785802    3.0901536400
29   

C        1.5874985458   -3.5222943333   -1.3960922009
C        0.3961195505   -3.2051032086   -0.7549153725
C        4.7874402015    1.6263137189   -0.7905201934
C        6.0205211705    1.0227383315   -0.5816324740
C        2.6822697068   -2.6680166619   -1.2770888797
C        0.3159555832   -2.0480348102    0.0220140302
C        3.6653603539    0.8064399778   -0.7653634445
C        6.0862633646   -0.3560992458   -0.3599179973
C        2.6133393498   -1.4811213530   -0.5192632552
C        1.4142511182   -1.1789612701    0.1763363394
C        3.7949077585   -0.5726548544   -0.5330450299
C       -0.0043782086    0.5725276464    1.2741304867
C        2.3323721863    0.1371992816    2.0876842267
N        4.9995270539   -1.1416617424   -0.3372071845
N        1.2982487269   -0.0788024169    1.0576266163
H        1.6654170114   -4.4253282627   -1.9907675954
H       -0.4615943720   -3.8619388973   -0.8443665427
H        4.7007431982    2.6931406104   -0.9686899539
H        6.9319357886    1.6069320496   -0.5910214329
H        3.6023066250   -2.9153062044   -1.7959824980
H       -0.6119947438   -1.8510049339    0.5406103623
H        2.6765035155    1.2178846903   -0.9240370572
H        7.0565067370   -0.8118400178   -0.2007440246
H       -0.5697798082    0.6153114028    0.3377783050
H        0.1417117033    1.5999128298    1.6218897866
H       -0.5851329885    0.0237063400    2.0222634032
H        2.8114586428    1.1108474599    1.9500457627
H        3.0982640939   -0.6434745231    2.0503225650
H        1.8805746839    0.0983807848    3.0837207416
29   

C        1.6287201508   -3.5454965349   -1.3101579568
C        0.4166837490   -3.2079396846   -0.7254236087
C        4.8327865985    1.6364694869   -0.6604900722
C        6.0666357729    1.0015440997   -0.6835128356
C        2.7213496324   -2.6915047193   -1.1751550304
C        0.3146808298   -2.0305560459    0.0140038989
C        3.7027085359    0.8317855268   -0.5730543161
C        6.1252588094   -0.3931531757   -0.6273369492
C        2.6407901632   -1.4782233734   -0.4509408423
C        1.4099696900   -1.1605062222    0.1859902477
C        3.8225811650   -0.5678858160   -0.4941455884
C       -0.0445836233    0.6097155296    1.2058264948
C        2.2390640582    0.1414915805    2.1432857735
N        5.0313623952   -1.1640240481   -0.5426286053
N        1.2603743451   -0.0564342997    1.0570602453
H        1.7249985603   -4.4635288072   -1.8786265414
H       -0.4400068246   -3.8640238448   -0.8290423800
H        4.7503908706    2.7168973226   -0.7174798635
H        6.9832715520    1.5733395371   -0.7532190487
H        3.6467895605   -2.9667286924   -1.6695098293
H       -0.6306507414   -1.8189369124    0.4939594880
H        2.7181884518    1.2806649371   -0.5797984989
H        7.0956546629   -0.8747555056   -0.6556492746
H       -0.5706016471    0.6376608272    0.2462242242
H        0.0958863924    1.6426848057    1.5389115793
H       -0.6608769330    0.0805293367    1.9395946335
H        2.6821856851    1.1396642534    2.0801360668
H        3.0401886257   -0.6023914479    2.0965655039
H        1.7461892827    0.0296616985    3.1140352128
29   

C        1.6730948618   -3.5801447317   -1.2178571963
C        0.4443278304   -3.2179697129   -0.6915880974
C        4.9040152188    1.6316738515   -0.5374076244
C        6.1071604349    0.9920869201   -0.7925799223
C        2.7656003317   -2.7280966573   -1.0730677907
C        0.3269637399   -2.0183341620    0.0042523505
C        3.7736467149    0.8356219672   -0.3905164348
C        6.1339528393   -0.3982933935   -0.9057003938
C        2.6785006656   -1.4835039619   -0.3918546848
C        1.4210212341   -1.1488034358    0.1879897535
C        3.8612798843   -0.5702685624   -0.4669861187
C       -0.0574064701    0.6533162428    1.1129346143
C        2.1422087020    0.1153924952    2.2046729250
N        5.0405885380   -1.1601828051   -0.7607882054
N        1.2388880318   -0.0431526011    1.0491099852
H        1.7836776983   -4.5161973762   -1.7534207735
H       -0.4127556433   -3.8719613512   -0.8047432263
H        4.8417678681    2.7128667096   -0.4703504689
H        7.0211423422    1.5581207164   -0.9200093704
H        3.6924784982   -3.0426213218   -1.5395631046
H       -0.6322414258   -1.7886772301    0.4469998544
H        2.8173751887    1.3169169579   -0.2474326701
H        7.0777483182   -0.8848049315   -1.1223971381
H       -0.5366547505    0.6599792010    0.1287354287
H        0.0889719218    1.6935012021    1.4198132716
H       -0.7196131707    0.1599178966    1.8315267052
H        2.5439867308    1.1325185811    2.2366963638
H        2.9793703294   -0.5873648245    2.1530599765
H        1.5985957729   -0.0843086300    3.1333251739
29   

C        1.7768500301   -3.6113866020   -1.0057889414
C        0.8442032218   -3.4944665712    0.0089245274
C        5.2576031148    1.4641787552   -0.0941737100
C        6.0575839734    1.1365474625   -1.1753907109
C        2.6693145769   -2.5700322616   -1.2494092965
C        0.7902740593   -2.3182500820    0.7478633145
C        4.1402595839    0.6712477172    0.1446286960
C        5.7268828593    0.0319442473   -1.9569015120
C        2.6706005399   -1.3604149045   -0.4942375382
C        1.6638153730   -1.2388202536    0.5075315017
C        3.8096242397   -0.4083300550   -0.7081950655
C        0.9826433190    1.1340861010    0.3872769007
C        0.9653120859   -0.0606783408    2.6014680824
N        4.6464128405   -0.7251895002   -1.7228922329
N        1.3814959767   -0.0377235311    1.1887041236
H        1.8250232841   -4.5158087158   -1.6015861979
H        0.1499120298   -4.3021968422    0.2104688629
H        5.5022547654    2.2980212845    0.5555918420
H        6.9424527220    1.7148283940   -1.4089029091
H        3.3949986967   -2.7474612256   -2.0347887759
H        0.0143018025   -2.2308992386    1.4959095581
H        3.5662124978    0.8946600649    1.0276200976
H        6.3704581702   -0.2287000282   -2.7889193234
H        1.3222775510    1.0356642854   -0.6484528697
H        1.4203733549    2.0458638944    0.8049277127
H       -0.1075961520    1.2297299805    0.3806532495
H        1.3132454998    0.8432985804    3.1105550285
H        1.4009614333   -0.9236720315    3.1151691314
H       -0.1254722778   -0.1160451387    2.6757286641
