16   

C        5.0202484945    1.6401465919    0.1071829423
C        5.3180374782    0.5088475112    0.8043027774
C        3.3530568224    0.2730439071   -0.2439690917
C        2.0817715281   -0.3296392602   -0.7324156873
C        0.4484422309   -2.1483178463   -0.3783335865
N        3.8079575174    1.4804326344   -0.5366910435
N        4.2730235349   -0.3802516426    0.5944203757
N        1.6820491508   -1.4600941398   -0.0278889350
O        1.4027957782    0.0992465165   -1.6584611322
H        5.6395113063    2.5287037607    0.0586336397
H        6.2145072854    0.3527205255    1.3934269620
H        0.2815679260   -2.9939370930    0.2957766747
H        0.5047745332   -2.5284614422   -1.4038533596
H       -0.4041586149   -1.4653043716   -0.2981625338
H        4.2229219223   -1.3464943881    0.9007235555
H        2.1569595580   -1.6884156077    0.8341403523
16   

C        4.9861869404    1.6555180638    0.1830390894
C        5.3487613357    0.4765531127    0.7620530261
C        3.3945584653    0.2445907742   -0.3003654320
C        2.1386443816   -0.3764598304   -0.8111455777
C        0.4182612763   -2.0829164570   -0.3433904613
N        3.7759467857    1.4996846652   -0.4669464992
N        4.3494508086   -0.4407364701    0.4674536299
N        1.6634747682   -1.4061600230   -0.0130035088
O        1.5204547445   -0.0155366188   -1.8059944195
H        5.5583289562    2.5755759294    0.2222526407
H        6.2575205142    0.3089138695    1.3287893497
H        0.1944292383   -2.8501988883    0.4039789979
H        0.4978601106   -2.5663859991   -1.3228005455
H       -0.4097011722   -1.3661460444   -0.3662947286
H        4.3446168236   -1.4356632446    0.6721089834
H        2.0850563252   -1.5385355795    0.8971069818
16   

C        4.9502154968    1.6578507076    0.2657405963
C        5.3902242976    0.4535328596    0.7288949320
C        3.4457440049    0.2042939721   -0.3405223938
C        2.2076256887   -0.4436321883   -0.8725694117
C        0.3995527523   -2.0286141935   -0.3282888535
N        3.7409106592    1.4916661625   -0.3845594771
N        4.4434885049   -0.4912307109    0.3570202206
N        1.6507981480   -1.3610274534   -0.0028496023
O        1.6643740892   -0.1681173858   -1.9360028532
H        5.4670423325    2.6030781222    0.3875633741
H        6.3143552848    0.2887255231    1.2710948018
H        0.1247710708   -2.7264946376    0.4685077559
H        0.5017503678   -2.5925873543   -1.2614668893
H       -0.4046841112   -1.2938361966   -0.4422308112
H        4.4875856137   -1.4991755869    0.4794127003
H        2.0270078753   -1.4126308829    0.9358834131
16   

C        4.8545293140    1.6507161416    0.3420226625
C        5.3947613900    0.4463451470    0.6846845810
C        3.4357236997    0.1489168161   -0.3386515308
C        2.2185095525   -0.5440366870   -0.8785176946
C        0.3433457104   -2.0213313870   -0.2751266477
N        3.6334666034    1.4534098987   -0.2780170278
N        4.5012585829   -0.5299010629    0.2651087106
N        1.5827692643   -1.3330718633    0.0515649966
O        1.7759629279   -0.4091596794   -2.0132920896
H        5.3097529409    2.6170594912    0.5274165175
H        6.3487896941    0.3031581332    1.1791421148
H        0.0234698732   -2.6433948721    0.5664085012
H        0.4858586552   -2.6682491353   -1.1472111508
H       -0.4469947131   -1.2956358168   -0.4948037320
H        4.6096943878   -1.5397581349    0.3090002409
H        1.9042653993   -1.2817763218    1.0111232939
16   

C        4.7886443695    1.6498546031    0.4711211882
C        5.4391574295    0.4656965327    0.6593014572
C        3.4417168515    0.1098057568   -0.2591196885
C        2.2624759378   -0.6234205979   -0.8437305193
C        0.3215014847   -2.0322525940   -0.2965693135
N        3.5462324206    1.4151692403   -0.0926296821
N        4.5935764823   -0.5355401589    0.2010070623
N        1.5021653305   -1.2756062150    0.0902469727
O        2.0411001684   -0.7342390650   -2.0440221181
H        5.1838459453    2.6278516156    0.7216438951
H        6.4335423698    0.3528760755    1.0759086760
H       -0.0944220529   -2.5524536729    0.5717001665
H        0.5779494499   -2.7793244753   -1.0550770741
H       -0.4425777982   -1.3601175231   -0.7013937047
H        4.7767120824   -1.5333232520    0.1315532600
H        1.6964880559   -1.0839239231    1.0666484453
16   

C        4.7727163791    1.6642551616    0.5605680674
C        5.5258996728    0.5273139764    0.5928242715
C        3.4829265686    0.0754595236   -0.1677803410
C        2.3526936735   -0.6885071675   -0.8087449715
C        0.3262417887   -2.0130163753   -0.3508792634
N        3.5081998981    1.3739116539    0.0754409548
N        4.7216662248   -0.5012634303    0.1212312279
N        1.4330520626   -1.1717456771    0.0785593208
O        2.3981691004   -1.1126328886   -1.9582907570
H        5.1139055242    2.6491099623    0.8590026559
H        6.5595148530    0.4640402329    0.9131295955
H       -0.1486476563   -2.4821304946    0.5161847303
H        0.6799538341   -2.8074199289   -1.0164439995
H       -0.4209728173   -1.4115291272   -0.8791547089
H        4.9742911465   -1.4671048526   -0.0736004310
H        1.4716736718   -0.8080958609    1.0246609199
16   

C        4.7297619529    1.6354171343    0.6855183791
C        5.5691664761    0.5677607914    0.5579141600
C        3.5089765870    0.0044672064   -0.0735871949
C        2.4153475424   -0.7846518920   -0.7339572275
C        0.2976858725   -1.9829319379   -0.3348656011
N        3.4558559847    1.2816662283    0.2708790863
N        4.8104357304   -0.4824928719    0.0597788024
N        1.3902791884   -1.1263463176    0.1003718062
O        2.5765220408   -1.3747303271   -1.7973298454
H        5.0176142452    2.6175720074    1.0431719505
H        6.6279302185    0.5651016767    0.7900858182
H       -0.2638944759   -2.3457884963    0.5313375391
H        0.6799141393   -2.8520739551   -0.8803343053
H       -0.3819562972   -1.4236493280   -0.9863462404
H        5.1171017801   -1.4017399555   -0.2507264863
H        1.3513208017   -0.6429574347    0.9918592202
16   

C        4.6986889253    1.5780796162    0.7684753437
C        5.5951036749    0.5841121630    0.5051515250
C        3.5371066733   -0.0768055277   -0.0343336599
C        2.4655950417   -0.8932826960   -0.6819451928
C        0.2638428356   -1.9435627084   -0.3159730019
N        3.4245249438    1.1675542884    0.4095093683
N        4.8737368952   -0.4778940642   -0.0225188133
N        1.3677143191   -1.0938773080    0.1031564785
O        2.6726762392   -1.5929008798   -1.6686659414
H        4.9462080335    2.5490866588    1.1823400644
H        6.6652008883    0.6378330632    0.6691325969
H       -0.3542274202   -2.2100036717    0.5467672212
H        0.6361297524   -2.8699727871   -0.7656477817
H       -0.3586721381   -1.4175517764   -1.0473056652
H        5.2132408687   -1.3526847585   -0.4170732848
H        1.3001843315   -0.5138894038    0.9340188783
16   

C        4.6763923120    1.5234266959    0.8343535379
C        5.6090415969    0.6081783863    0.4423785641
C        3.5610353481   -0.1427786646   -0.0108016826
C        2.5035071606   -0.9922977241   -0.6243145789
C        0.2343883820   -1.9000167173   -0.2871986156
N        3.4060102789    1.0583554817    0.5317606062
N        4.9161664880   -0.4593551315   -0.1115505718
N        1.3555431158   -1.0620168944    0.1079048631
O        2.7267717313   -1.7706088270   -1.5467800136
H        4.8950973571    2.4773240721    1.3008880851
H        6.6829306008    0.7168874823    0.5415960243
H       -0.4231630178   -2.0766041499    0.5694028476
H        0.5852451405   -2.8714537940   -0.6509509328
H       -0.3406730305   -1.4096563294   -1.0795456780
H        5.2754531757   -1.2915876914   -0.5752539277
H        1.2843529768   -0.4070047767    0.8816283027
16   

C        4.6660901148    1.4856440712    0.8907286726
C        5.6129699859    0.6489993112    0.3761346226
C        3.5769968610   -0.1703082301   -0.0072538154
C        2.5293508529   -1.0505446598   -0.5840817702
C        0.2050843384   -1.8263271793   -0.2982725740
N        3.4014719723    0.9772487981    0.6364891848
N        4.9360388831   -0.4116299372   -0.2097338951
N        1.3415912743   -1.0011233169    0.0788877280
O        2.7597391921   -1.8855288893   -1.4538935838
H        4.8702449325    2.4138747343    1.4123781868
H        6.6849444135    0.8038277951    0.4188024158
H       -0.4829546832   -1.9268581580    0.5466254305
H        0.5334406455   -2.8300318881   -0.5880805935
H       -0.3289886926   -1.3702808527   -1.1382727349
H        5.3025843252   -1.2027328740   -0.7359116857
H        1.2753976155   -0.2944801922    0.8071700550
16   

C        4.6710270137    1.4244589146    0.8135028048
C        5.6051641009    0.6301307211    0.2153123863
C        3.5719331028   -0.2383075699   -0.0590719385
C        2.5224963279   -1.1632207415   -0.5525045880
C        0.1494497951   -1.7944134632   -0.2922667836
N        3.4075611273    0.8824392189    0.6328224804
N        4.9213794411   -0.4360202400   -0.3521567682
N        1.3064237372   -0.9701807502    0.0213162391
O        2.7491969128   -2.0807322442   -1.3359345700
H        4.8830187433    2.3444206470    1.3465522295
H        6.6730579260    0.8147291826    0.1937731837
H       -0.4982292971   -1.8808901683    0.5854793140
H        0.4554351219   -2.8049520667   -0.5830422149
H       -0.4199386915   -1.3478300646   -1.1137282575
H        5.2765853057   -1.2160522005   -0.9022916112
H        1.2564593519   -0.1981441045    0.6820902395
16   

C        4.6952778801    1.4614792796    0.8046233452
C        5.6166133045    0.7359332647    0.1074237897
C        3.5961947305   -0.1768895304   -0.1130692496
C        2.5577950162   -1.1330819576   -0.5670933840
C        0.1465699768   -1.6661183385   -0.4126900284
N        3.4404956645    0.8883192009    0.6633734561
N        4.9330740890   -0.3158701724   -0.4864278926
N        1.3119505624   -0.8476541869   -0.1107331554
O        2.8009806129   -2.0931339060   -1.2924757752
H        4.9106426258    2.3528740747    1.3829359944
H        6.6762384358    0.9544382594    0.0411574154
H       -0.4049490648   -1.8854652017    0.5067409157
H        0.4359028657   -2.6212959853   -0.8634239973
H       -0.5121271709   -1.1403788578   -1.1110057991
H        5.2829853980   -1.0639533896   -1.0824889011
H        1.2562558577   -0.0387154026    0.5042487071
16   

C        4.6689112500    1.4313241644    0.8024176551
C        5.5721101641    0.7449490645    0.0444457416
C        3.5596424431   -0.1961683269   -0.1222476130
C        2.5285891396   -1.1854084028   -0.5204617882
C        0.0965377514   -1.6102873102   -0.5654091869
N        3.4205677424    0.8363842567    0.7001405841
N        4.8828186617   -0.3021347823   -0.5511662608
N        1.2586465261   -0.8040161030   -0.2252516832
O        2.7861544406   -2.2109267200   -1.1441252549
H        4.8933412387    2.3079819374    1.3995056594
H        6.6244540086    0.9838999910   -0.0575963208
H       -0.1533249572   -2.2799830594    0.2637565108
H        0.2855118451   -2.2119619653   -1.4607539576
H       -0.7611569652   -0.9630930421   -0.7725422720
H        5.2261201652   -1.0407263002   -1.1626368828
H        1.1752383653    0.0849384534    0.2625611955
16   

C        4.6549735609    1.5239324039    0.8331947708
C        5.5412388340    0.8990595018    0.0052873176
C        3.5629827459   -0.1221022534   -0.0793840855
C        2.5629940109   -1.1690732804   -0.4095087915
C        0.1453280419   -1.6182900517   -0.6065849372
N        3.4304608704    0.8752787027    0.7865086100
N        4.8641922795   -0.1613043078   -0.5809281753
N        1.2717681472   -0.7578005937   -0.2817001897
O        2.8608199156   -2.2400111832   -0.9303175417
H        4.8763500490    2.3920835448    1.4436991677
H        6.5756270399    1.1852898957   -0.1464847952
H       -0.0648912534   -2.2945847554    0.2284275311
H        0.3566295494   -2.2128669168   -1.5016043330
H       -0.7444862498   -1.0132418362   -0.8053410162
H        5.2101260976   -0.8804783500   -1.2135267632
H        1.1440872134    0.1639654451    0.1283805785
16   

C        4.6859589559    1.4894032327    0.8837830673
C        5.5132238853    0.9424547746   -0.0530406248
C        3.5535548279   -0.1174133853   -0.0491424296
C        2.5590459430   -1.1873761687   -0.3365048661
C        0.1574082012   -1.6317652270   -0.6845815870
N        3.4760627884    0.8128176236    0.8941469796
N        4.8115583122   -0.0944830582   -0.6521787973
N        1.2668597236   -0.7527567114   -0.3502165672
O        2.8736455333   -2.2851909910   -0.7863797696
H        4.9399100188    2.3202026145    1.5323875922
H        6.5267288516    1.2622733589   -0.2661676264
H       -0.0980749893   -2.2587886095    0.1759605643
H        0.4148632774   -2.2767763155   -1.5312124400
H       -0.7197791923   -1.0403336888   -0.9639988776
H        5.1272342459   -0.7743763151   -1.3412452843
H        1.1136396325    0.1891988641   -0.0009313152
16   

C        4.7337516716    1.4549400406    0.9497577859
C        5.4795355290    0.9874751627   -0.0924289148
C        3.5484611130   -0.1172586434    0.0247179265
C        2.5552748425   -1.2076892152   -0.2175901739
C        0.1852246857   -1.6695578530   -0.7218486281
N        3.5443931865    0.7478720267    1.0295240666
N        4.7449779953   -0.0285454646   -0.6880718866
N        1.2740826509   -0.7672921664   -0.3805686888
O        2.8848980982   -2.3359118778   -0.5703340114
H        5.0316954903    2.2497744586    1.6241998690
H        6.4630602563    1.3438695604   -0.3762350358
H       -0.1248739041   -2.2358445494    0.1625823155
H        0.4931447734   -2.3710616990   -1.5042284368
H       -0.6717744298   -1.1005645829   -1.0948385827
H        5.0165242982   -0.6658680717   -1.4339119827
H        1.0964251280    0.1978663523   -0.1194452655
16   

C        4.7946639448    1.4075748785    1.0216883809
C        5.4382746971    1.0242486237   -0.1183105965
C        3.5459282549   -0.1260865222    0.1188487462
C        2.5397718985   -1.2212609754   -0.0886865250
C        0.2151513991   -1.6959536322   -0.7598267108
N        3.6298413600    0.6723063237    1.1715854794
N        4.6625841095    0.0330155749   -0.7036354533
N        1.2903313059   -0.7783933421   -0.4148611470
O        2.8647601143   -2.3843402770   -0.3044662231
H        5.1474541024    2.1629278645    1.7147859281
H        6.3835558840    1.4183926798   -0.4732546483
H       -0.1639255869   -2.1871828155    0.1424661586
H        0.5672806881   -2.4600518390   -1.4606841039
H       -0.6060352156   -1.1513765417   -1.2356772174
H        4.8733907400   -0.5513059029   -1.5096142587
H        1.1072234535    0.2091031682   -0.2690735120
16   

C        4.8728778603    1.3131113610    1.0789603704
C        5.3811121625    1.0324607361   -0.1555011243
C        3.5580667180   -0.1884563501    0.2217104678
C        2.5165119499   -1.2627034616    0.0398764768
C        0.2412203700   -1.7171027026   -0.7889907542
N        3.7463317865    0.5402931567    1.3076440882
N        4.5591582322    0.0656736346   -0.7184201046
N        1.3287912553   -0.8083404739   -0.4595645859
O        2.7828723333   -2.4595388472    0.0333091410
H        5.2921009036    2.0252764214    1.7807332725
H        6.2690773579    1.4784458480   -0.5885999016
H       -0.2266491439   -2.0922079122    0.1272984694
H        0.6103861536   -2.5658980784   -1.3741646515
H       -0.5163458701   -1.1977844439   -1.3837933112
H        4.6805601219   -0.4415208106   -1.5917148769
H        1.1843766689    0.1956438891   -0.4606340518
16   

C        4.9088935138    1.2293835525    1.0922202135
C        5.2709079614    1.0536133216   -0.2111833174
C        3.5488199585   -0.2649533940    0.2944957795
C        2.4515522293   -1.2848950335    0.1341041782
C        0.2195628544   -1.6764580055   -0.8232295425
N        3.8334757394    0.4108532980    1.3921617092
N        4.4110133323    0.1022524526   -0.7431699030
N        1.3734538840   -0.8261212921   -0.5750923971
O        2.5324704737   -2.4526377850    0.4971705916
H        5.3906496012    1.9049499251    1.7900348046
H        6.0879713115    1.5606842784   -0.7115611363
H       -0.2840351126   -1.9151746178    0.1195685903
H        0.5287475428   -2.6080879369   -1.3087057435
H       -0.4911500514   -1.1657440054   -1.4801554335
H        4.4283298436   -0.3160038594   -1.6698280408
H        1.3389348679    0.1657175914   -0.7822809137
16   

C        5.0028003327    1.1251484391    1.1192755899
C        5.2175253607    1.0620252299   -0.2259885083
C        3.5691913204   -0.3222545370    0.3569981397
C        2.4314409051   -1.2928350116    0.2278915038
C        0.2355082144   -1.6485431331   -0.8276925261
N        3.9686570098    0.2737745894    1.4658413354
N        4.3069866588    0.1468598586   -0.7367198376
N        1.4489899161   -0.8691132509   -0.6365441346
O        2.3280886120   -2.3443367858    0.8487137946
H        5.5557956997    1.7478622035    1.8134238813
H        5.9710924942    1.6207989562   -0.7691913683
H       -0.3311113433   -1.7038701084    0.1079433959
H        0.4830833447   -2.6638211262   -1.1551927331
H       -0.3952039373   -1.1843764270   -1.5920336255
H        4.2226263817   -0.1866572694   -1.6933525526
H        1.5152183996    0.0751396868   -0.9981264819
16   

C        5.1143301774    1.0741139419    1.1294262899
C        5.2033157351    1.1018723073   -0.2306443325
C        3.5879986625   -0.3018244100    0.4075761471
C        2.4358386728   -1.2509323584    0.3205404692
C        0.3008226839   -1.6882462893   -0.8319958721
N        4.1040013460    0.2101701810    1.5112074467
N        4.2351476681    0.2330342117   -0.7153529246
N        1.5228885528   -0.9171695976   -0.6611770699
O        2.2413678622   -2.2006321930    1.0703171340
H        5.7385582934    1.6418823065    1.8101498043
H        5.9128995921    1.6896372980   -0.8017691149
H       -0.3050262349   -1.6469445033    0.0795585353
H        0.5395693551   -2.7337170298   -1.0540619036
H       -0.2881578830   -1.2848975521   -1.6613547757
H        4.0700406150   -0.0402957800   -1.6801897894
H        1.6295670576   -0.0220925133   -1.1225627548
16   

C        5.1720372014    1.0055662322    1.1436779905
C        5.1603115441    1.1350228845   -0.2127066276
C        3.5382372493   -0.2581225233    0.4426320914
C        2.3686705432   -1.1811280171    0.3785961021
C        0.3147073837   -1.7215110172   -0.8782747649
N        4.1632910409    0.1452717391    1.5358146059
N        4.1267169095    0.3374645001   -0.6843137369
N        1.5305477178   -0.9419754838   -0.7000397653
O        2.1020194611   -2.0492069886    1.2016903735
H        5.8664122462    1.4984157630    1.8147467825
H        5.8475997399    1.7416434649   -0.7913106380
H       -0.3404724132   -1.6086761906   -0.0077496959
H        0.5591459100   -2.7814786202   -1.0049295311
H       -0.2255718004   -1.3824582804   -1.7673899794
H        3.8950525661    0.1354145916   -1.6524531817
H        1.6723601234   -0.0962023355   -1.2368008277
16   

C        5.0834905718    1.3611893666   -0.2698321384
C        5.2529331525    0.4072251540    0.6871319267
C        3.2538098348    0.1682860226   -0.2934775001
C        1.8966973811   -0.3547988696   -0.6143295699
C        0.3674701031   -2.2780463249   -0.3637979219
N        3.8459737994    1.2043607713   -0.8645657948
N        4.0992637730   -0.3645229067    0.6950887091
N        1.6456277818   -1.6279538838   -0.1148627204
O        1.0445619782    0.2366370582   -1.2674728678
H        5.8044393122    2.1298525344   -0.5243246640
H        6.1276215785    0.3004202950    1.3184904393
H        0.3575027528   -3.2774909754    0.0815705733
H        0.1933148442   -2.3747230916   -1.4409129842
H       -0.4470808325   -1.6939263105    0.0774435794
H        3.8648474603   -1.1051530214    1.3481352395
H        2.4153106289   -2.1619303302    0.2635752843
16   

C        5.0683572937    1.6191906310    0.0278794739
C        5.2975948364    0.5658739445    0.8594303944
C        3.3389142602    0.3012334834   -0.1957897220
C        2.0515908334   -0.2837419663   -0.6657058408
C        0.4727366543   -2.1720702744   -0.4434736834
N        3.8600386838    1.4424515585   -0.6179987562
N        4.2104458728   -0.2886079024    0.7374374508
N        1.7083713091   -1.4962943763   -0.0755069432
O        1.3159365468    0.2185215634   -1.5080836512
H        5.7322380735    2.4648087106   -0.1119959312
H        6.1743333946    0.4398787121    1.4843475900
H        0.3892965519   -3.1252134486    0.0874372095
H        0.4557406394   -2.3731756655   -1.5200041716
H       -0.3912371531   -1.5510504963   -0.1835461782
H        4.0844729900   -1.1788051036    1.2060884819
H        2.2945978875   -1.8828252478    0.6487862765
