29   

C        3.0827047810   -2.8217956632    0.6819695674
C        2.4556824893   -1.6310188163    0.3063194340
C        2.8673839762   -3.3459157426    1.9592511701
C        1.6121742628   -0.9684503334    1.2051903915
C        2.0308504799   -2.6772641918    2.8600251112
C       -0.1577454728   -4.4163158799    5.7023313070
C       -0.0377628183   -5.6847753360    5.1287148036
C       -1.3789151887   -3.6781668921    3.7571546916
C        1.3909331718   -1.4815425091    2.4939293585
C       -0.8177603771   -3.3955087644    5.0108847030
C       -0.5735510572   -5.9593796519    3.8638638274
C       -1.2571974263   -4.9434943090    3.1715083538
C        0.5091501165   -0.7873169015    3.4275816395
C        0.3878060838   -0.8933446838    4.8032310948
O       -2.2147205740   -1.0958469424    5.3467310709
O       -0.6358618514   -1.7070659619    7.1429247188
S       -0.9261336337   -1.7117408648    5.7003690675
Cl      -0.3814025898   -7.5553165797    3.1717056540
Cl      -1.9480778409   -5.2292138173    1.5886825683
H        3.7341604479   -3.3369853739   -0.0152438225
H        2.6234243198   -1.2193709894   -0.6826576130
H        3.3487116431   -4.2719105429    2.2528811259
H        1.1350890899   -0.0447515794    0.8964621619
H        1.8740170030   -3.0979708546    3.8466503615
H        0.2668475231   -4.2216926988    6.6844558546
H        0.4794988029   -6.4709219406    5.6661320745
H       -1.9104915024   -2.9003092383    3.2159657019
H       -0.1567239309   -0.0574498301    2.9776257983
H        1.1756151615   -0.5074173864    5.4304764937
29   

C        2.8590987813   -3.1018711595    0.8812190985
C        2.1717214549   -1.9876134999    0.3940684679
C        2.8006769335   -3.4115594140    2.2421173387
C        1.4214273768   -1.1898080057    1.2652012749
C        2.0565932730   -2.6081293721    3.1130894985
C       -0.0688329173   -4.3959113130    5.5514001176
C        0.1165865129   -5.6109789272    4.8865660596
C       -1.2398886535   -3.5466503131    3.6210022574
C        1.3501342919   -1.4909951026    2.6357523453
C       -0.7338047291   -3.3440528110    4.9132751882
C       -0.3570745393   -5.8005199829    3.5818458400
C       -1.0493381503   -4.7559334240    2.9432813449
C        0.5415697750   -0.6668667387    3.5329816962
C        0.3628656861   -0.7591282830    4.8918645275
O       -2.2272562817   -1.1359437600    5.4094051303
O       -0.6265093343   -1.8002067724    7.1584496440
S       -0.9112073709   -1.7173103522    5.7170195953
Cl      -0.0762979865   -7.3270232855    2.7733967973
Cl      -1.6611616787   -4.9340064535    1.3129147342
H        3.4361485823   -3.7235046181    0.2055816044
H        2.2177123887   -1.7422157861   -0.6610802505
H        3.3314659664   -4.2762485312    2.6239589024
H        0.8911580440   -0.3322845685    0.8658582817
H        2.0251477549   -2.8634918339    4.1657686951
H        0.3117836251   -4.2653245560    6.5616814225
H        0.6393451593   -6.4205058268    5.3821266082
H       -1.7747154542   -2.7452626780    3.1191706318
H        0.0258681629    0.1667530484    3.0667193724
H        0.9931106218   -0.1870324152    5.5544734468
29   

C        2.7120404591   -3.3434086228    1.1798142076
C        1.8927413383   -2.3836123867    0.5806415316
C        2.8500367050   -3.3665640581    2.5695482966
C        1.2056806674   -1.4550853756    1.3707141180
C        2.1641003949   -2.4362486265    3.3579078528
C        0.0649013307   -4.3430087362    5.2749191887
C        0.2755018386   -5.4850236985    4.4977039223
C       -1.2184144310   -3.3827355113    3.4726388988
C        1.3233561206   -1.4752888117    2.7703028578
C       -0.6666435319   -3.2694205414    4.7570599377
C       -0.2374114357   -5.5786698437    3.1975289719
C       -1.0001215653   -4.5158449547    2.6811918021
C        0.5569883417   -0.5315974344    3.5915111066
C        0.3097579057   -0.6052979790    4.9287815607
O       -2.2253324780   -1.1870355185    5.5220839437
O       -0.5132978710   -1.9181662136    7.1198084203
S       -0.8679583327   -1.7244330323    5.7045950168
Cl       0.0841288890   -7.0092546416    2.2423627593
Cl      -1.6615980478   -4.5743655763    1.0616107631
H        3.2391387345   -4.0672955838    0.5682601425
H        1.7850118951   -2.3621070461   -0.4980376336
H        3.4863502115   -4.1084676931    3.0382932688
H        0.5665464503   -0.7245893191    0.8872347450
H        2.2813252421   -2.4698078771    4.4351246942
H        0.4803331292   -4.2839116309    6.2779721014
H        0.8518451399   -6.3097933436    4.8994531690
H       -1.8061064636   -2.5654807908    3.0648736374
H        0.1763112854    0.3500587096    3.0856385716
H        0.7146111466    0.1417888572    5.5935890128
29   

C        2.6383028615   -3.4113003845    1.2928373145
C        1.8111997213   -2.4788442569    0.6619198998
C        2.8051115844   -3.3638867824    2.6789176224
C        1.1445490486   -1.5075670358    1.4172634918
C        2.1382313642   -2.3917170936    3.4325755994
C        0.0749102752   -4.3635870860    5.1655001641
C        0.2886587549   -5.4891638493    4.3660520140
C       -1.2221367124   -3.3755113004    3.3883743734
C        1.2882190430   -1.4597054698    2.8135285382
C       -0.6651250421   -3.2838767329    4.6721012756
C       -0.2293521769   -5.5605711795    3.0667664760
C       -1.0002526812   -4.4921680834    2.5742251882
C        0.5491190935   -0.4630326373    3.6015159598
C        0.1777163589   -0.5370859577    4.9009296734
O       -2.2813187137   -1.3051947147    5.5729212178
O       -0.4672472642   -1.9894263687    7.0582288576
S       -0.8888016516   -1.7705383933    5.6650201126
Cl       0.0950862027   -6.9714584312    2.0837332392
Cl      -1.6694881159   -4.5246729495    0.9571739877
H        3.1496873055   -4.1681440265    0.7084501222
H        1.6819219109   -2.5115414207   -0.4141113354
H        3.4489266718   -4.0832943819    3.1718093137
H        0.4999667160   -0.7976118670    0.9109405792
H        2.2775246498   -2.3676974670    4.5076476051
H        0.4922173826   -4.3230445822    6.1687114042
H        0.8703871166   -6.3184256682    4.7503800833
H       -1.8184231153   -2.5550904190    3.0003641033
H        0.3117642512    0.4650492953    3.0911474312
H        0.3754602929    0.3024274806    5.5494971398
29   

C        3.1676539565   -3.5334462439    1.9163638947
C        2.1351562696   -3.0602529985    1.1019229994
C        3.3175247846   -3.0282935507    3.2105819097
C        1.2538765347   -2.0843674316    1.5812671783
C        2.4326549478   -2.0566449691    3.6904316097
C        0.1842478072   -4.2671268611    4.4960818581
C        0.0636552749   -5.2718877228    3.5353411070
C       -1.7897350595   -3.2031775834    3.6097786261
C        1.3863902772   -1.5765131221    2.8832335265
C       -0.7305686406   -3.2087662857    4.5275260537
C       -0.9714972371   -5.2471561228    2.5941902454
C       -1.9149878050   -4.2036159133    2.6368355195
C        0.4412454624   -0.5694488990    3.3935683275
C        0.0186328725   -0.4506164304    4.6670491825
O       -1.7868683891   -1.4782321655    6.3419826083
O        0.5429036869   -2.1440266677    6.6846080149
S       -0.5093428163   -1.8299401467    5.7032337407
Cl      -1.0656420975   -6.5071851307    1.3833771364
Cl      -3.2294614405   -4.1239121583    1.4840693630
H        3.8518795179   -4.2879157823    1.5442467516
H        2.0152441486   -3.4509861871    0.0976476442
H        4.1200612224   -3.3872753977    3.8452957384
H        0.4535664078   -1.7334654607    0.9392780379
H        2.5618379706   -1.6742828550    4.6983376505
H        1.0067272651   -4.2957361797    5.2064247760
H        0.7894513386   -6.0757957524    3.5080177140
H       -2.5197410589   -2.3994765984    3.6348167655
H        0.0786711661    0.1633539652    2.6798959329
H       -0.2216004131    0.5206640256    5.0713857335
29   

C        3.1551147392   -3.5512156405    1.9809247129
C        2.1284484719   -3.0785930130    1.1586896746
C        3.3188390380   -3.0182604751    3.2623956657
C        1.2672689784   -2.0753315576    1.6175695779
C        2.4533928752   -2.0195559382    3.7218811573
C        0.1933130010   -4.2720061494    4.4212814811
C        0.0500176884   -5.2761066023    3.4631455871
C       -1.7967683160   -3.2031855241    3.5784969462
C        1.4135482124   -1.5401628956    2.9068730432
C       -0.7192077571   -3.2124673996    4.4743682759
C       -1.0055609366   -5.2492259498    2.5451853637
C       -1.9451861882   -4.2031674432    2.6081440740
C        0.4914195913   -0.4965766593    3.3940130478
C       -0.0667401049   -0.4280106557    4.6129763685
O       -1.7228730323   -1.5482876641    6.3760140622
O        0.6447349214   -2.1316468591    6.5668174345
S       -0.4748764917   -1.8412608197    5.6546260127
Cl      -1.1298670422   -6.5100412208    1.3378925662
Cl      -3.2846538663   -4.1209168025    1.4846953466
H        3.8242435677   -4.3265498523    1.6246065450
H        1.9975746153   -3.4905511024    0.1643170981
H        4.1169761173   -3.3762722675    3.9032005246
H        0.4714814932   -1.7235853774    0.9704185222
H        2.5929242855   -1.6145941065    4.7195920815
H        1.0308161202   -4.3028996831    5.1137490416
H        0.7733844887   -6.0815215527    3.4203961022
H       -2.5245532004   -2.3982612109    3.6195188275
H        0.2407904025    0.2911437599    2.6908091522
H       -0.4495025510    0.5116030186    4.9809128018
29   

C        3.1275710817   -3.5690429336    2.0181366976
C        2.1015647029   -3.0810681160    1.2039876063
C        3.3176010264   -3.0296324461    3.2934493483
C        1.2679351370   -2.0556992666    1.6646967773
C        2.4790378448   -2.0088947198    3.7547798001
C        0.2037203843   -4.2808645606    4.4061166385
C        0.0622447932   -5.2909269139    3.4539565556
C       -1.7950322321   -3.2273240851    3.5650702437
C        1.4412729649   -1.5138681593    2.9476182170
C       -0.7149050201   -3.2266637135    4.4578237255
C       -0.9970609266   -5.2748653758    2.5400534166
C       -1.9417386020   -4.2332601358    2.6006255040
C        0.5488647022   -0.4412576017    3.4356859218
C       -0.1477296657   -0.4286973687    4.5801756972
O       -1.7123648220   -1.5977880044    6.3909870294
O        0.6770386062   -2.1087513086    6.5122641484
S       -0.4769931785   -1.8506471920    5.6335721607
Cl      -1.1197428226   -6.5434321364    1.3407297609
Cl      -3.2859635010   -4.1642957801    1.4819331480
H        3.7756172401   -4.3613879596    1.6603089395
H        1.9498050607   -3.4979467185    0.2146454566
H        4.1151021624   -3.3998038774    3.9280847290
H        0.4723814758   -1.6907363963    1.0245901321
H        2.6371861718   -1.5986973604    4.7475693921
H        1.0439162368   -4.3033956169    5.0955996848
H        0.7897263329   -6.0926890626    3.4129609492
H       -2.5268573619   -2.4260475476    3.6041052621
H        0.4154269216    0.4061007550    2.7708477751
H       -0.6436489330    0.4749322636    4.9000976153
29   

C        1.9929510414   -3.0252090123    0.8731624941
C        1.0931116993   -1.9558513288    0.8726497278
C        2.7099207011   -3.3288093113    2.0337720039
C        0.9060533978   -1.1967879408    2.0332352486
C        2.5258539412   -2.5647940028    3.1917433326
C       -0.2611897321   -3.9911353232    5.4253913052
C        0.1592847599   -5.2871382063    5.1152569276
C       -0.9294688544   -3.6838787784    3.1295108001
C        1.6157291648   -1.4970033359    3.2072990660
C       -0.7924958564   -3.1691195130    4.4270581726
C        0.0484651252   -5.7902070895    3.8127790712
C       -0.5110397536   -4.9802658864    2.8086200088
C        1.4060280251   -0.7056417971    4.4417799888
C        0.2770703249   -0.6177839738    5.1553639018
O       -1.9174152759   -0.8275146277    3.6143771751
O       -2.1290477812   -1.3929741825    5.9856428609
S       -1.2765517802   -1.4461422823    4.7877277856
Cl       0.6084517445   -7.4105948231    3.4612420969
Cl      -0.6806521440   -5.5581496875    1.1647372120
H        2.1322391062   -3.6191960306   -0.0233482267
H        0.5353243373   -1.7155447848   -0.0256320470
H        3.4058193880   -4.1601379627    2.0374915397
H        0.2000923052   -0.3719120571    2.0222339729
H        3.0830352507   -2.8146168791    4.0875853806
H       -0.1653957799   -3.6185465780    6.4415548200
H        0.5815600197   -5.9155641028    5.8902905415
H       -1.3527823783   -3.0623524526    2.3454102938
H        2.2841225741   -0.2118292355    4.8453298348
H        0.2489755116   -0.0137715408    6.0492745296
29   

C        2.0058660566   -3.0173965906    0.8419779144
C        1.0975146570   -1.9562506632    0.8807616610
C        2.7354164383   -3.3488426761    1.9869295932
C        0.9136153818   -1.2341071354    2.0649818171
C        2.5541821746   -2.6220803477    3.1691647209
C       -0.2803909353   -3.9695837612    5.4410528510
C        0.1474843433   -5.2670952966    5.1477146715
C       -0.9390238383   -3.6917469298    3.1385428486
C        1.6336162947   -1.5642902764    3.2254498053
C       -0.8098097554   -3.1612052658    4.4306061804
C        0.0462054878   -5.7851266673    3.8503006796
C       -0.5121534681   -4.9893108491    2.8342872865
C        1.4256990953   -0.8172853644    4.4828525855
C        0.2570139186   -0.5880982184    5.0975551352
O       -1.9577073614   -0.8389873333    3.5931111958
O       -2.1332705501   -1.3617554376    5.9757350209
S       -1.2969987932   -1.4340557103    4.7674585603
Cl       0.6168237985   -7.4061875313    3.5195961067
Cl      -0.6689021638   -5.5856110585    1.1957585232
H        2.1428650553   -3.5826642321   -0.0732558942
H        0.5310468459   -1.6930096152   -0.0056073265
H        3.4390866308   -4.1731637315    1.9595095643
H        0.2028328845   -0.4135342075    2.0812732764
H        3.1216213885   -2.8949238310    4.0517311185
H       -0.1910926242   -3.5847993721    6.4532927635
H        0.5687478786   -5.8848146687    5.9318561322
H       -1.3611718967   -3.0812377948    2.3451808411
H        2.3212956630   -0.4531585550    4.9758574601
H        0.2095917429    0.1021314040    5.9258516418
29   

C        2.0454128038   -3.0038596713    0.8246834201
C        1.1179177078   -1.9606050082    0.8843992191
C        2.7789554937   -3.3465127515    1.9637079338
C        0.9186687170   -1.2678612335    2.0834585038
C        2.5821195942   -2.6495396096    3.1613484712
C       -0.2970604273   -3.9445751807    5.4543967651
C        0.1417118205   -5.2390968130    5.1638137929
C       -0.9605259946   -3.6784291818    3.1517666058
C        1.6419007246   -1.6102842881    3.2391436890
C       -0.8334333802   -3.1430317141    4.4421142722
C        0.0447859836   -5.7607910034    3.8674864286
C       -0.5216168656   -4.9724879656    2.8500816143
C        1.4140846867   -0.9000541771    4.5103590949
C        0.2256777130   -0.5425296280    5.0241797964
O       -2.0413553759   -0.8477057396    3.6165107627
O       -2.1177148093   -1.3336653354    6.0120098594
S       -1.3288064744   -1.4169174453    4.7729807657
Cl       0.6309751986   -7.3768872846    3.5397656741
Cl      -0.6725241599   -5.5731228580    1.2126222410
H        2.1945129368   -3.5462225549   -0.1024375999
H        0.5486794446   -1.6883610179    0.0025242120
H        3.4979800139   -4.1567415595    1.9195903415
H        0.1930816966   -0.4607710073    2.1143084154
H        3.1530159670   -2.9324674940    4.0384696467
H       -0.2103354253   -3.5563279164    6.4656018903
H        0.5687794831   -5.8513856632    5.9490736390
H       -1.3888492344   -3.0737978679    2.3571826960
H        2.2985529900   -0.6430932139    5.0842761061
H        0.1707708661    0.2408616692    5.7644288717
29   

C        2.1004508442   -3.0168032545    0.8191623245
C        1.1511826619   -1.9935992686    0.8806740182
C        2.8271233423   -3.3591093040    1.9626327144
C        0.9235398640   -1.3204716543    2.0857399542
C        2.6015340635   -2.6822637024    3.1667795522
C       -0.3173977605   -3.9387861363    5.4486816980
C        0.1291770503   -5.2253706819    5.1359277763
C       -1.0182707518   -3.6513025917    3.1595556046
C        1.6397857365   -1.6628277964    3.2464335943
C       -0.8752063723   -3.1298667961    4.4538762365
C        0.0191231286   -5.7316875265    3.8345645300
C       -0.5704313469   -4.9368843534    2.8354469145
C        1.3773105948   -0.9788394459    4.5233383938
C        0.1853130969   -0.5072739618    4.9364785143
O       -2.1748747382   -0.8581579453    3.7068374445
O       -2.0681481897   -1.3279571836    6.1051945273
S       -1.3724491886   -1.4097516955    4.8113919302
Cl       0.6184256738   -7.3367791108    3.4778733621
Cl      -0.7375962835   -5.5181497425    1.1926419069
H        2.2717693303   -3.5438062312   -0.1129598316
H        0.5871819068   -1.7220665592   -0.0047666045
H        3.5632154570   -4.1537639020    1.9167857020
H        0.1804139478   -0.5295809575    2.1172299849
H        3.1674359719   -2.9661852126    4.0467806846
H       -0.2192906127   -3.5615969315    6.4631347206
H        0.5735439457   -5.8429826115    5.9073053580
H       -1.4643023788   -3.0412659240    2.3789614224
H        2.2311490197   -0.8112291993    5.1718000368
H        0.1350025009    0.3730629614    5.5585780245
29   

C        2.2159814743   -3.0960849448    0.8618809099
C        1.2201574603   -2.1165921622    0.8824424744
C        2.9349298605   -3.3793405312    2.0261204768
C        0.9388630528   -1.4281619081    2.0673542966
C        2.6543708585   -2.6882088111    3.2104843833
C       -0.2940515609   -3.9445761502    5.4073771026
C        0.1525197604   -5.2094913393    5.0174059928
C       -1.1472663612   -3.5834659584    3.1810156845
C        1.6462131362   -1.7119363057    3.2490636939
C       -0.9270382080   -3.1086891861    4.4819917378
C       -0.0313524140   -5.6672633281    3.7066296931
C       -0.6984091661   -4.8469226406    2.7790889648
C        1.3243839411   -1.0170007913    4.5043598840
C        0.1282838398   -0.4729685229    4.8271813230
O       -2.3860002238   -0.8648610877    3.9773404263
O       -1.8971348642   -1.3594617004    6.3247345936
S       -1.4112127850   -1.4088173065    4.9367836589
Cl       0.5745716889   -7.2440780239    3.2493423756
Cl      -0.9582686050   -5.3679258979    1.1282704335
H        2.4296047716   -3.6344753872   -0.0548626382
H        0.6620447643   -1.8915580408   -0.0195530359
H        3.7080929794   -4.1392119296    2.0116353073
H        0.1606616341   -0.6716178554    2.0670764937
H        3.2155916979   -2.9270291334    4.1067085835
H       -0.1357890351   -3.6033012420    6.4271009276
H        0.6562899006   -5.8467534696    5.7343824549
H       -1.6530884554   -2.9524145821    2.4556241253
H        2.1360062095   -0.8841812224    5.2123515500
H        0.0776264388    0.5152000177    5.2575658128
29   

C        2.6769527941   -3.3423007075    1.2095417638
C        1.4367112652   -2.7072680278    1.1136489494
C        3.4648402755   -3.1557058863    2.3481320916
C        0.9840386865   -1.8921572860    2.1566484795
C        3.0073345073   -2.3449826561    3.3934402829
C       -0.1473044503   -3.9494779174    4.9855038414
C        0.1562912747   -5.1446148644    4.3320080794
C       -1.7287876500   -3.4167046428    3.2438807701
C        1.7560300269   -1.7111318615    3.3170730880
C       -1.0746683636   -3.0604209158    4.4313783419
C       -0.4659190764   -5.4830374227    3.1249734321
C       -1.4286443298   -4.6132601181    2.5794626911
C        1.2673555624   -0.8976570741    4.4350585254
C        0.0007845896   -0.4420834512    4.6481393599
O       -2.6472965921   -0.8558690058    4.7481417285
O       -1.3129640848   -1.5648045337    6.6815700621
S       -1.3825302856   -1.4441575034    5.2166551981
Cl      -0.0303275955   -6.9743874959    2.3196060917
Cl      -2.2405232128   -4.9904791998    1.0758167050
H        3.0269974483   -3.9755214569    0.4017954185
H        0.8223645771   -2.8475472543    0.2312642895
H        4.4307168285   -3.6426583962    2.4223902250
H        0.0209566837   -1.4034782464    2.0621984505
H        3.6298282678   -2.2185152120    4.2722154680
H        0.3543560435   -3.6998259449    5.9168002855
H        0.8921662886   -5.8169376868    4.7567557431
H       -2.4690001334   -2.7470167262    2.8145684037
H        2.0120116821   -0.5756478009    5.1559929607
H       -0.2001919800    0.6177691532    4.6289007210
29   

C        3.0106099892   -3.2112022491    1.1642684427
C        1.6684284218   -2.8281285066    1.1084068910
C        3.7865685581   -2.8578716515    2.2710474966
C        1.1046979511   -2.0933535322    2.1570352050
C        3.2185883485   -2.1300529613    3.3230279150
C       -0.2837916925   -3.9985079580    4.9701365222
C       -0.1003240016   -5.2144148609    4.3105052843
C       -1.9591199897   -3.3868321928    3.3459314777
C        1.8688635228   -1.7415967136    3.2828036226
C       -1.2007498586   -3.0626486358    4.4792520772
C       -0.8324445639   -5.5261973094    3.1592917724
C       -1.7799079989   -4.6043589892    2.6756111587
C        1.2769913305   -1.0028857039    4.3975854594
C       -0.0020855130   -0.5246148487    4.5430945662
O       -2.6424675593   -0.7913246828    4.9279901145
O       -1.1428570763   -1.5483856915    6.7284071339
S       -1.3654795570   -1.4326158144    5.2783610517
Cl      -0.5520607997   -7.0505776074    2.3465874653
Cl      -2.7258150309   -4.9465763098    1.2435777462
H        3.4485164452   -3.7786965587    0.3505342130
H        1.0618543832   -3.0998955142    0.2516985297
H        4.8300766705   -3.1491080890    2.3150468060
H        0.0634003720   -1.8006217905    2.0918685387
H        3.8368559312   -1.8688776473    4.1747699868
H        0.2999710390   -3.7726738442    5.8589018701
H        0.6248557653   -5.9257147203    4.6879879179
H       -2.6910838511   -2.6788615133    2.9663926922
H        1.9466467254   -0.7687141964    5.2190445136
H       -0.2404900713    0.4817961125    4.2367368151
29   

C        3.4365492122   -2.9928042538    1.0959569436
C        2.0396925717   -2.9561438600    1.1021386543
C        4.1498832793   -2.4219845811    2.1532315292
C        1.3587972342   -2.3449563358    2.1608873805
C        3.4670164038   -1.8190312182    3.2157469809
C       -0.4924766871   -4.1049134463    4.9853553484
C       -0.4781476302   -5.3502584143    4.3554561737
C       -2.1911693242   -3.3611433663    3.4421962631
C        2.0632571542   -1.7704198418    3.2319095748
C       -1.3390588258   -3.0920180689    4.5221493048
C       -1.3103747114   -5.6133117881    3.2612301215
C       -2.1821878306   -4.6078716410    2.8023945400
C        1.3546585436   -1.1353721192    4.3402092845
C        0.0527815110   -0.6746322947    4.4313703258
O       -2.5565965559   -0.7083198935    5.0328797096
O       -0.9771581972   -1.5576863477    6.7277627161
S       -1.3104751745   -1.4436780373    5.2988724073
Cl      -1.2485600757   -7.1827871990    2.4891522147
Cl      -3.2480208689   -4.8858735129    1.4422975724
H        3.9649961060   -3.4610331386    0.2728636168
H        1.4818955691   -3.4003079717    0.2852606323
H        5.2339426327   -2.4440356111    2.1491857748
H        0.2751175094   -2.3242754398    2.1487165506
H        4.0373178551   -1.3780952890    4.0259741079
H        0.1622245829   -3.9208015871    5.8336411009
H        0.1884854281   -6.1256846641    4.7145736275
H       -2.8694320713   -2.5905759919    3.0850976540
H        1.9435360268   -0.9851051675    5.2396601801
H       -0.2252326925    0.2107952123    3.8818934401
