28   

C       -3.3212226305    4.3776586961    2.2440567962
C       -3.7908023511    3.1657879254    2.7564632003
C       -2.3297568732    4.3765830350    1.2594837214
C       -3.2716614199    1.9556713618    2.2822761234
C       -1.8015021649    3.1654146059    0.7970550154
C       -2.2641114281    1.9396938590    1.3025335613
C       -0.5315446173    0.3972595081    0.1308222595
C        0.5573625496   -0.2158337705    0.8483090431
C       -0.5199770938    0.0341626088   -1.3278069225
C       -1.7052720252    0.6891145939    0.8350892389
C        1.9106409160   -0.2954132575   -1.1914110538
C        0.6750114735   -0.9307029307   -3.2781642329
N        1.6972600150   -0.6040504823    0.2010149608
N        0.6617587370   -0.3969456407   -1.9208884321
O        0.4881901378   -0.4598497562    2.0401578781
O       -1.5567447823    0.0838007182   -1.9731170838
H       -3.7248734127    5.3153279435    2.6092828192
H       -4.5554080328    3.1622710967    3.5250153715
H       -1.9689372584    5.3146456718    0.8533761279
H       -3.6447767410    1.0258023183    2.6963758972
H       -1.0342801639    3.1792119950    0.0314844131
H       -2.0813500509   -0.1577452895    1.3996229373
H        2.3197241709    0.7160702308   -1.2887627727
H        2.6372162704   -1.0023470229   -1.6058357761
H        1.5990521292   -0.6447415248   -3.7904544689
H       -0.1597470168   -0.5407035314   -3.8694086119
H        0.6062957816   -2.0228124115   -3.2509349617
H        2.3621151953   -1.1252168681    0.7595602165
28   

C       -3.4678355239    4.3768649746    2.0372542462
C       -3.8193495693    3.2242364399    2.7439504014
C       -2.5591140680    4.2914047101    0.9793279084
C       -3.2640602282    1.9888466907    2.3916035184
C       -1.9930323404    3.0573223618    0.6384458536
C       -2.3346324603    1.8905729616    1.3412385514
C       -0.5676688164    0.3065544586    0.3024639628
C        0.4445848150   -0.4936958562    0.9450898345
C       -0.5892822519    0.1153714712   -1.1833444538
C       -1.7301788891    0.6159589429    0.9992064579
C        1.7750209168   -0.5716474977   -1.1152668597
C        0.4925266829   -0.6966272873   -3.2626271234
N        1.5235990869   -0.9629388590    0.2497722449
N        0.5314903002   -0.3849811110   -1.8377245918
O        0.3651609492   -0.8156019813    2.1179035780
O       -1.5897085986    0.4136843166   -1.8197671535
H       -3.8999866496    5.3337360816    2.3077075915
H       -4.5203356793    3.2868587476    3.5685573712
H       -2.2928071700    5.1811110841    0.4202736129
H       -3.5459641377    1.1072450008    2.9561453664
H       -1.2951768142    3.0040375558   -0.1896063950
H       -2.0060217326   -0.1327527725    1.7351576588
H        2.3554232906    0.3572016768   -1.1321177825
H        2.3662839629   -1.3543056478   -1.6024382529
H        0.9291557017    0.1245085908   -3.8396315590
H       -0.5337894763   -0.8591576689   -3.6077581769
H        1.0513571608   -1.6155334737   -3.4662029266
H        2.1345276906   -1.5860521747    0.7637559622
28   

C       -3.5031308734    4.3690353806    1.9198412344
C       -3.7837719983    3.2805586659    2.7485557061
C       -2.6372059363    4.2087243303    0.8354574408
C       -3.2011225805    2.0345950484    2.4909438423
C       -2.0421405016    2.9657794523    0.5891823326
C       -2.3132450257    1.8608503860    1.4140811042
C       -0.5585533986    0.2239358846    0.4581799466
C        0.4094832561   -0.6788235327    1.0311057910
C       -0.5737900502    0.1834651367   -1.0381814923
C       -1.6809349210    0.5709532910    1.1814983987
C        1.7474861214   -0.6439402539   -1.0253803033
C        0.4882335959   -0.4717437989   -3.1820780272
N        1.4608169634   -1.1481247227    0.2948943635
N        0.5254115524   -0.3120149428   -1.7320599094
O        0.3245567050   -1.0773153575    2.1799027006
O       -1.5481764339    0.5947752632   -1.6519145155
H       -3.9569545352    5.3338859049    2.1162398108
H       -4.4510450647    3.4013700072    3.5943754610
H       -2.4261768677    5.0470716816    0.1815258074
H       -3.4289571602    1.2047096422    3.1503314890
H       -1.3781265748    2.8609079029   -0.2609373886
H       -1.9106914820   -0.1080770113    1.9966476627
H        2.3838416518    0.2445846826   -0.9510718692
H        2.2942238763   -1.4115020895   -1.5834409099
H        0.9726853613    0.3814503074   -3.6670839579
H       -0.5405177956   -0.5449913305   -3.5496884474
H        1.0027572323   -1.3918102758   -3.4767428477
H        2.0470388245   -1.8302742987    0.7603815146
28   

C       -3.5261323693    4.3227356548    1.7807081856
C       -3.7444633679    3.2834648222    2.6864590114
C       -2.6841616933    4.1195489514    0.6853872658
C       -3.1253673720    2.0437515828    2.4931861992
C       -2.0528440416    2.8834397963    0.5020569666
C       -2.2646423990    1.8228452537    1.4018539458
C       -0.5523735902    0.1162681034    0.4755546056
C        0.3819172140   -0.8572345665    0.9874796118
C       -0.5681414297    0.1771205109   -1.0189372246
C       -1.6017219237    0.5333862538    1.2552839502
C        1.7293326417   -0.7149060704   -1.0552599466
C        0.4865560702   -0.3597404296   -3.1996170924
N        1.4123910449   -1.3165536519    0.2164254634
N        0.5237969518   -0.2928394049   -1.7421656123
O        0.2986926228   -1.3106510784    2.1159434796
O       -1.5429687286    0.6177284859   -1.6109373094
H       -4.0080641504    5.2828578230    1.9268934530
H       -4.3920151093    3.4374267724    3.5421903772
H       -2.5176141362    4.9203623288   -0.0259082347
H       -3.3073588746    1.2539170635    3.2132637317
H       -1.4016541158    2.7611038678   -0.3540800327
H       -1.7828123642   -0.0868896587    2.1274902555
H        2.3885076797    0.1466649031   -0.9029701437
H        2.2615370679   -1.4495739649   -1.6688464337
H        0.9658385533    0.5255329323   -3.6290555748
H       -0.5420420925   -0.4161220741   -3.5705965334
H        1.0062939242   -1.2556711274   -3.5535193711
H        1.9862244161   -2.0351127498    0.6407174611
28   

C       -3.6686936345    4.4606401536    1.7853454618
C       -3.7723479079    3.4535318994    2.7449720905
C       -2.8789293099    4.2556377474    0.6528316641
C       -3.0938763992    2.2433265572    2.5664367685
C       -2.1880962793    3.0496173476    0.4828190840
C       -2.2890529636    2.0153855379    1.4334058598
C       -0.6164262485    0.2767703450    0.4624806051
C        0.3054876303   -0.7439594775    0.9014050009
C       -0.6535541906    0.4281227142   -1.0242559032
C       -1.5706485656    0.7515161512    1.3198164504
C        1.6364934679   -0.4763068144   -1.1349842616
C        0.3829837123    0.0161928585   -3.2443270244
N        1.3124956274   -1.1747536946    0.0844388284
N        0.4325818537    0.0046554878   -1.7853166210
O        0.2452967069   -1.2491836158    2.0091913629
O       -1.6497489441    0.8626293037   -1.5835549364
H       -4.1968821478    5.3978983303    1.9196299697
H       -4.3773326293    3.6092557093    3.6310290030
H       -2.7966627593    5.0333435697   -0.0977729414
H       -3.1897814386    1.4796159029    3.3300464358
H       -1.5717626636    2.9440288099   -0.3992784708
H       -1.6702818436    0.1718625668    2.2320873887
H        2.3001025020    0.3669356382   -0.9144579989
H        2.1654380265   -1.1629919321   -1.8044288846
H        0.9073000231    0.8955618025   -3.6311182269
H       -0.6478129006    0.0348721720   -3.6126345795
H        0.8521018463   -0.8868006859   -3.6475633361
H        1.8908933653   -1.9158924773    0.4609758673
28   

C       -3.7081406418    4.4360169380    1.7477056513
C       -3.7116485527    3.4774604362    2.7601405383
C       -2.9759188679    4.2042405132    0.5828062899
C       -2.9937111583    2.2878009529    2.6005523286
C       -2.2453486434    3.0192696116    0.4305120489
C       -2.2496747969    2.0277833295    1.4321895253
C       -0.6369354768    0.2197057124    0.4523287466
C        0.2410913966   -0.8507022863    0.8651835160
C       -0.6443921047    0.4254178471   -1.0275293286
C       -1.4954000090    0.7808751293    1.3524531878
C        1.6226081702   -0.5363101556   -1.1274067249
C        0.4353054792    0.0847591582   -3.2406065175
N        1.2424169925   -1.2867775498    0.0440397954
N        0.4510392519    0.0133666166   -1.7822301907
O        0.1599424271   -1.3836012979    1.9586351737
O       -1.6349983900    0.8604805108   -1.5952678318
H       -4.2674066964    5.3571728016    1.8667772366
H       -4.2699838787    3.6545542270    3.6724464245
H       -2.9672189465    4.9463717207   -0.2072660785
H       -3.0146984388    1.5630964960    3.4067766021
H       -1.6699411521    2.9100363771   -0.4767376635
H       -1.5371486781    0.2495131176    2.2979192866
H        2.3037853208    0.2739252240   -0.8452605100
H        2.1500850255   -1.2033276167   -1.8175858660
H        0.9889897068    0.9660415883   -3.5791120084
H       -0.5853741242    0.1432152223   -3.6320317957
H        0.8928241121   -0.8120590568   -3.6700579908
H        1.7965777977   -2.0536570028    0.4051614309
28   

C       -3.7688895870    4.4410152520    1.7723311146
C       -3.6505734601    3.5343327609    2.8238482083
C       -3.1172830698    4.1831996554    0.5664788058
C       -2.8946899387    2.3689736562    2.6616701912
C       -2.3476368706    3.0235641178    0.4105091767
C       -2.2323895424    2.0782602958    1.4507653261
C       -0.6758792316    0.2143017146    0.4516183265
C        0.1519838286   -0.9018230406    0.8483081388
C       -0.6348871279    0.4707834717   -1.0192342357
C       -1.4418727712    0.8525603615    1.3820495918
C        1.6040744267   -0.5582594344   -1.0857451894
C        0.5110986061    0.1856638848   -3.2087374676
N        1.1552338703   -1.3475199109    0.0348899736
N        0.4763874345    0.0628609651   -1.7536942885
O        0.0349552451   -1.4588443400    1.9264113536
O       -1.6121567493    0.9055753453   -1.6084635863
H       -4.3585832871    5.3428284057    1.8927605648
H       -4.1442293752    3.7324590069    3.7685590415
H       -3.2004562210    4.8867659873   -0.2540055603
H       -2.8238654760    1.6859175004    3.5007835365
H       -1.8364333181    2.9106046448   -0.5319625993
H       -1.4251953810    0.3604683479    2.3492094606
H        2.3026672327    0.2126587704   -0.7427140401
H        2.1322689612   -1.2121045429   -1.7879260886
H        1.1181141232    1.0493630601   -3.4974235590
H       -0.4911301932    0.3092979012   -3.6312235474
H        0.9382838977   -0.7173366900   -3.6561095851
H        1.6765931269   -2.1414670085    0.3862521396
28   

C       -3.8328086507    4.4480507944    1.8168568106
C       -3.5650810039    3.6196341328    2.9039674135
C       -3.2878829201    4.1413780049    0.5708982027
C       -2.7678968389    2.4828148869    2.7380870563
C       -2.4769829427    3.0108991651    0.4091981531
C       -2.2101927369    2.1404493356    1.4873272445
C       -0.6975305456    0.2311095879    0.4826879803
C        0.0858791916   -0.9159922925    0.8798712159
C       -0.5959032775    0.5240289068   -0.9781492033
C       -1.3785390157    0.9417304749    1.4277949484
C        1.6183880563   -0.5623150884   -0.9885642048
C        0.6448637108    0.2954139989   -3.1226524394
N        1.1017519755   -1.3718764867    0.0880513643
N        0.5380317108    0.1164962728   -1.6773874068
O       -0.0734525419   -1.4844294606    1.9465180639
O       -1.5594126651    0.9328601438   -1.6057766780
H       -4.4556793633    5.3269445249    1.9397964255
H       -3.9754106882    3.8558752549    3.8793070743
H       -3.4872803991    4.7842942057   -0.2788832005
H       -2.5834779664    1.8620538171    3.6077890196
H       -2.0624607939    2.8698332875   -0.5737334950
H       -1.2967834505    0.4949665971    2.4134750837
H        2.3299139395    0.1721189470   -0.5960931252
H        2.1474256333   -1.2122618442   -1.6939990409
H        1.6268946357    0.7059246310   -3.3775898731
H       -0.1069940448    0.9938304807   -3.5038271371
H        0.5130983081   -0.6643402348   -3.6320055620
H        1.5879064089   -2.1889619478    0.4368592796
28   

C       -3.8683248835    4.3962669336    1.8331924917
C       -3.2049887235    3.8326924075    2.9200531434
C       -3.7183464281    3.8269856785    0.5701195645
C       -2.3801328412    2.7184077251    2.7360056553
C       -2.8993642865    2.7055207525    0.3892534698
C       -2.1802111503    2.1379666805    1.4640320951
C       -0.7076732070    0.2076594637    0.4350667388
C       -0.0584873739   -1.0257285423    0.8292365759
C       -0.5410974475    0.5520283975   -1.0081595666
C       -1.3050384471    0.9713541738    1.3974625175
C        1.3114726974   -1.0674416759   -1.1912674997
C        0.5009948742    0.1334196227   -3.2135697455
N        0.7774949636   -1.6966758074   -0.0144851234
N        0.3340572680   -0.1897622092   -1.7997164220
O       -0.2148997590   -1.5238062335    1.9311004373
O       -1.0174745450    1.5551852175   -1.5075245726
H       -4.5067158264    5.2617664320    1.9702886631
H       -3.3284159998    4.2579206158    3.9096719710
H       -4.2505478385    4.2433875768   -0.2775763927
H       -1.8810560529    2.3102311848    3.6077293396
H       -2.9098509300    2.2811019275   -0.6000288712
H       -1.0799042489    0.6227049235    2.4001839748
H        2.2057537875   -0.4919501964   -0.9264668308
H        1.6013233899   -1.8436109934   -1.9071912675
H        1.2148760848    0.9557440171   -3.3287977027
H       -0.4533624652    0.4294865530   -3.6611235992
H        0.8681299722   -0.7368105416   -3.7663644156
H        1.1716522858   -2.5479220881    0.3670728795
28   

C       -3.9609394424    4.2912161668    1.7281807475
C       -3.2507611313    3.8344865168    2.8369992452
C       -3.7583841726    3.6886467792    0.4866288422
C       -2.3319898878    2.7892024899    2.6979983457
C       -2.8448834581    2.6359164833    0.3510253161
C       -2.0922747126    2.1753871305    1.4509623492
C       -0.5941193530    0.2612937064    0.4442298619
C        0.0026070830   -0.9920158400    0.8484156195
C       -0.3536808879    0.6293516613   -0.9810754992
C       -1.1377057581    1.0732784636    1.4022842037
C        1.2804063686   -1.2110694109   -1.2351714811
C        0.6425175732    0.1810696027   -3.1945292060
N        0.7595154386   -1.7416143058   -0.0037048541
N        0.4288584338   -0.1831763145   -1.7974888397
O       -0.1427566486   -1.4491281947    1.9693245612
O       -0.6994564805    1.7100268307   -1.4303200562
H       -4.6725727108    5.1025406059    1.8318122112
H       -3.4115959129    4.2884440797    3.8083127799
H       -4.3181129789    4.0278240863   -0.3774985380
H       -1.7983717197    2.4573156107    3.5815273072
H       -2.7798263373    2.1736687439   -0.6220680311
H       -0.8755817998    0.7688646635    2.4105410342
H        2.2780560068   -0.7947703795   -1.0557992381
H        1.3752887146   -2.0308512263   -1.9548996639
H        1.4053258157    0.9634437784   -3.2661693046
H       -0.2854194642    0.5490041213   -3.6443913839
H        0.9700523669   -0.6875110139   -3.7743476969
H        1.1130181354   -2.6008614476    0.3994166667
28   

C       -4.0350162190    4.2364312571    1.7340107541
C       -3.2644768097    3.8669917857    2.8361749850
C       -3.8237759847    3.6104727042    0.5047174173
C       -2.2802135027    2.8818793377    2.7040535008
C       -2.8453413047    2.6170193281    0.3766736686
C       -2.0423574250    2.2416202414    1.4715588177
C       -0.5770280419    0.3297687022    0.4469267067
C       -0.0283234528   -0.9419356048    0.8492740146
C       -0.2813660145    0.7185872075   -0.9620420450
C       -1.0286584283    1.1963826025    1.4095529631
C        1.1727603600   -1.2685014628   -1.2756374040
C        0.7239123740    0.2778098615   -3.1710540278
N        0.6679586680   -1.7387101691   -0.0117205827
N        0.4544952712   -0.1210456117   -1.7933087082
O       -0.1604026919   -1.3725040311    1.9821033296
O       -0.5710732691    1.8289653955   -1.3813121600
H       -4.7974457025    5.0008151083    1.8330762196
H       -3.4299561653    4.3415157847    3.7967936260
H       -4.4235718513    3.8876490627   -0.3545927848
H       -1.7000668217    2.6130918869    3.5796096086
H       -2.7479322100    2.1351694550   -0.5859530462
H       -0.7052249150    0.9321186204    2.4114497316
H        2.2296698739   -1.0037147014   -1.1596952391
H        1.1025004322   -2.0858683435   -2.0009093066
H        1.5521485609    0.9934245884   -3.1998018402
H       -0.1606630027    0.7408361857   -3.6205394954
H        0.9866529933   -0.5925801413   -3.7804803860
H        0.9990703174   -2.6010153780    0.4038815527
28   

C       -4.0936530587    4.1695518564    1.7689000423
C       -3.2626841283    3.8817956535    2.8524032484
C       -3.8764915884    3.5348607973    0.5444718985
C       -2.2144089918    2.9665751239    2.7078498809
C       -2.8354783391    2.6090909605    0.4052434102
C       -1.9805131175    2.3127023388    1.4830551351
C       -0.5511876252    0.4046177143    0.4365775974
C       -0.0494516762   -0.8768810783    0.8598787019
C       -0.1977732626    0.7804821995   -0.9624482624
C       -0.9062021502    1.3337567770    1.3879375061
C        1.0989639122   -1.3183669456   -1.2809339860
C        0.8521368912    0.3130073559   -3.1436211373
N        0.6049928375   -1.7214690590    0.0114423872
N        0.5171647670   -0.0881381806   -1.7810837245
O       -0.1757623526   -1.2683191166    2.0073029226
O       -0.4590730451    1.8974271520   -1.3855359000
H       -4.9053076114    4.8799673173    1.8780778288
H       -3.4315419382    4.3649075232    3.8081009067
H       -4.5171718237    3.7551808676   -0.3016708627
H       -1.5873951055    2.7569439406    3.5670432815
H       -2.7106562456    2.1229009147   -0.5534655140
H       -0.5098250043    1.1198438110    2.3755884329
H        2.1854465139   -1.1922368478   -1.2165674162
H        0.8898654657   -2.1212649386   -1.9955240298
H        1.7158800677    0.9857660824   -3.1356365640
H        0.0072681328    0.8247536669   -3.6161782332
H        1.0916419663   -0.5621223510   -3.7559184662
H        0.9201342340   -2.5766154407    0.4535435147
28   

C       -4.1589139230    4.1029263816    1.8555197265
C       -3.2551377739    3.8855254962    2.8974456691
C       -3.9647151957    3.4672982189    0.6270856974
C       -2.1583642700    3.0371531268    2.7087191026
C       -2.8758968324    2.6065374351    0.4451623156
C       -1.9552712106    2.3779487411    1.4824790095
C       -0.5755508761    0.4715813806    0.3902398747
C       -0.1347936173   -0.8180917185    0.8489456967
C       -0.1540982633    0.8131910850   -0.9990714067
C       -0.8344180784    1.4648461545    1.3182076623
C        1.0425165889   -1.3533860486   -1.2568462531
C        0.9807609760    0.2928829742   -3.1244728443
N        0.5011953029   -1.7072169567    0.0320047928
N        0.5693309796   -0.0848972979   -1.7763772176
O       -0.2816066107   -1.1681200339    2.0070177370
O       -0.4028570600    1.9220532446   -1.4514913037
H       -5.0077149266    4.7619108810    1.9993022036
H       -3.4054623861    4.3709914264    3.8550034447
H       -4.6578152988    3.6390003132   -0.1884521061
H       -1.4738681977    2.8785655855    3.5342558281
H       -2.7478439485    2.1233847570   -0.5161995911
H       -0.3510404201    1.3019889738    2.2763576459
H        2.1344852783   -1.3129646667   -1.1767063011
H        0.7812825984   -2.1429371612   -1.9691603295
H        1.8703004704    0.9296317050   -3.0811721515
H        0.1797918768    0.8350807830   -3.6378192135
H        1.2114382016   -0.5954431555   -3.7209716262
H        0.7869463488   -2.5552328470    0.5067095260
28   

C       -4.1906604650    4.0048400080    1.9649217452
C       -3.1979209373    3.8690923223    2.9383935920
C       -4.0404710811    3.3714350277    0.7286576320
C       -2.0566841497    3.1030419355    2.6744266956
C       -2.9063255203    2.5919995824    0.4728278445
C       -1.9011346043    2.4442260330    1.4419606516
C       -0.5181760663    0.5828847507    0.2702367871
C       -0.1451711514   -0.7114973456    0.7722589589
C        0.0133261744    0.8878462331   -1.0885083576
C       -0.7377236501    1.6154604011    1.1802476729
C        0.9676123623   -1.3987028999   -1.3317516578
C        1.2606377225    0.2993376680   -3.1310250769
N        0.4624956655   -1.6547649942   -0.0050708515
N        0.7134424780   -0.0596181661   -1.8267444178
O       -0.3096724953   -1.0115487129    1.9418267845
O       -0.1432954541    2.0101982394   -1.5491961443
H       -5.0737567115    4.6002882091    2.1674283132
H       -3.3135749739    4.3538307293    3.9011057933
H       -4.8018124260    3.4835784255   -0.0347411129
H       -1.3016687026    3.0049886452    3.4461047816
H       -2.7984928153    2.1117102518   -0.4934876415
H       -0.1573064021    1.5115643821    2.0914227317
H        2.0509217336   -1.5623634002   -1.3217636244
H        0.5194379477   -2.1206720851   -2.0221850254
H        2.1995313814    0.8484138275   -3.0067359167
H        0.5552499949    0.9219276488   -3.6913715714
H        1.4534041618   -0.5973338988   -3.7285746805
H        0.7325306763   -2.4844878218    0.5095182812
28   

C       -4.2207359837    3.2361096905    2.4829116065
C       -3.0656253344    3.3586940287    3.2590553907
C       -4.1703383470    2.5466700721    1.2686150115
C       -1.8622293713    2.7954033604    2.8194010649
C       -2.9689975807    1.9713400096    0.8378147358
C       -1.8000304753    2.0868046469    1.6072385305
C       -0.2945359970    0.4932011980    0.2095163405
C        0.0591237751   -0.8266244367    0.6666475686
C        0.3055234472    0.8056354534   -1.1339461989
C       -0.5629857322    1.4765270594    1.1682981049
C        0.3263208057   -1.5972672741   -1.6423062111
C        1.4602642114    0.0189679621   -3.1869346693
N        0.4179667817   -1.8050721286   -0.2181853778
N        0.6958869186   -0.2342906033   -1.9708281767
O        0.1036106872   -1.1085959506    1.8512615165
O        0.4835958638    1.9690989219   -1.4631711772
H       -5.1526766186    3.6744250534    2.8219005970
H       -3.1018221606    3.8872144054    4.2049188589
H       -5.0625390479    2.4568269408    0.6595328746
H       -0.9779799352    2.8961107715    3.4385185603
H       -2.9436337145    1.4409708351   -0.1071651169
H        0.2143677050    1.5547761834    1.9212204641
H        1.0024068071   -2.2943104690   -2.1486820976
H       -0.6951883756   -1.8000878106   -1.9818889424
H        2.5281968761   -0.1227446903   -2.9928913770
H        1.3030940776    1.0380942774   -3.5544551429
H        1.1485189658   -0.6662505582   -3.9814902787
H        0.7555407977   -2.6663355681    0.1939852541
