24   

C       -4.2534867456   -1.0923285539    5.2354965664
C       -4.4072107516   -0.5769578287    3.9335683597
C       -2.0772038612   -1.5831364638    4.7813877062
C       -2.2078640883   -1.0693933936    3.4642388576
C       -1.1513787710   -0.5771747403    1.2116694518
C       -0.0365808365   -0.5511808993    0.4173173485
C       -1.0318912658   -1.0975458541    2.5615122465
C       -0.9538949707    0.9615108144   -1.2966362335
C        1.3946553741    0.0113501348   -1.4857979004
N       -3.0894708900   -1.6007625717    5.6753549815
N       -3.4001027366   -0.5586915596    3.0426386230
N        0.1311845658    0.1350126058   -0.7389896955
O        0.0352575495   -1.5613237108    2.9578161420
H       -5.1062370184   -1.0767191121    5.9038372151
H       -5.3716287081   -0.1805680447    3.6384551846
H       -1.1226703446   -1.9852389699    5.1009307568
H       -2.0825222683   -0.1364653956    0.8856938334
H        0.8383900771   -1.0822086994    0.7849705642
H       -1.3010481013    1.6871234343   -0.5541551204
H       -1.7912521577    0.3274426157   -1.6055172521
H       -0.6035285012    1.5170442718   -2.1722554083
H        1.2649112560   -0.6738842113   -2.3298092410
H        2.1931997542   -0.3740851041   -0.8437876459
H        1.7117624007    0.9887514766   -1.8626124102
24   

C       -4.2321306571   -1.0184016413    5.2397912428
C       -4.4227833635   -0.6467575101    3.8945269308
C       -2.0484021016   -1.4872749911    4.7980481960
C       -2.2158691870   -1.1168179733    3.4377707495
C       -1.2022955628   -0.8069492570    1.1327491529
C       -0.0831200804   -0.7225167118    0.3445910135
C       -1.0511098473   -1.1927808280    2.5234116666
C       -0.9490055082    0.9947631403   -1.1926187808
C        1.3969194259    0.0508675783   -1.4444756588
N       -3.0456723980   -1.4429194395    5.7078433698
N       -3.4306696331   -0.6903549184    2.9878307468
N        0.1175053245    0.0964684538   -0.7163210281
O        0.0386582822   -1.5742498039    2.9448381418
H       -5.0741993817   -0.9582427017    5.9190582467
H       -5.4038797117   -0.3125552824    3.5781487522
H       -1.0758801315   -1.8224403969    5.1397949131
H       -2.1488443531   -0.4115995788    0.7929374149
H        0.7925924667   -1.2637228106    0.6955716129
H       -1.3280941347    1.6081127097   -0.3689516183
H       -1.7709778029    0.4115788507   -1.6201915944
H       -0.5674758380    1.6691424280   -1.9657358590
H        1.2836685431   -0.5341235242   -2.3630246538
H        2.1796439517   -0.4090697962   -0.8327746543
H        1.7255017955    1.0625944573   -1.7018597472
24   

C       -4.1910168570   -0.9196953192    5.2363423196
C       -4.4144875088   -0.6940154408    3.8640378592
C       -1.9946489759   -1.3391589850    4.8070351886
C       -2.1950694298   -1.1149880675    3.4196197847
C       -1.2221540780   -0.9951239950    1.0789230888
C       -0.1104440819   -0.8616522626    0.2803462004
C       -1.0389014641   -1.2300990674    2.4984524936
C       -0.9410769662    1.0288670723   -1.0562649717
C        1.3948267087    0.0869947829   -1.4009066935
N       -2.9815012495   -1.2450868096    5.7244562015
N       -3.4328839932   -0.7875217080    2.9497748131
N        0.1101841978    0.0671360986   -0.6809429263
O        0.0735508837   -1.5155440270    2.9360017489
H       -5.0262729948   -0.8260886003    5.9202238632
H       -5.4128723620   -0.4341717392    3.5322719523
H       -1.0041238654   -1.5966845387    5.1640360022
H       -2.1866163930   -0.6548084350    0.7295936785
H        0.7678853859   -1.4147008978    0.6056385518
H       -1.3372750399    1.5289730884   -0.1667142153
H       -1.7552453283    0.5141547645   -1.5765418519
H       -0.5383960375    1.7985802002   -1.7221757316
H        1.2829670392   -0.3940977443   -2.3780584429
H        2.1680900786   -0.4446669216   -0.8372174822
H        1.7354048311    1.1169994718   -1.5453451430
24   

C       -4.1565174249   -0.8107502632    5.2137466902
C       -4.4050936457   -0.7370209187    3.8292907861
C       -1.9466885373   -1.1666163982    4.7953983307
C       -2.1723505739   -1.0950276264    3.3957702795
C       -1.2278250986   -1.1769450052    1.0417766891
C       -0.1363085179   -1.0005074660    0.2132370898
C       -1.0210837146   -1.2459163426    2.4735240764
C       -0.9492253565    1.0298549952   -0.9038771684
C        1.3673009778    0.0944772110   -1.3771479379
N       -2.9274537115   -1.0268310039    5.7136069496
N       -3.4297173888   -0.8768528527    2.9143485688
N        0.0891567358    0.0159717419   -0.6496483034
O        0.1106332526   -1.4231202089    2.9183076251
H       -4.9881930495   -0.6875022896    5.8972955658
H       -5.4182352241   -0.5593629418    3.4881604497
H       -0.9410064569   -1.3390961668    5.1611107946
H       -2.2125005049   -0.9076096820    0.6865582739
H        0.7473757463   -1.5660498051    0.5001520383
H       -1.3437894932    1.4193150845    0.0400975703
H       -1.7671955399    0.5945088630   -1.4867936471
H       -0.5342389771    1.8725378906   -1.4657688634
H        1.2361293243   -0.2660319642   -2.4026233553
H        2.1343433966   -0.5154584592   -0.8893480769
H        1.7283596718    1.1272869900   -1.4035314149
24   

C       -4.1297901624   -0.7227604295    5.1689836753
C       -4.3949975985   -0.8061030309    3.7882352965
C       -1.9052629045   -0.9787909812    4.7545426376
C       -2.1476230770   -1.0648387238    3.3586286058
C       -1.2183900738   -1.3388691455    1.0146078211
C       -0.1552188538   -1.1293624677    0.1424300428
C       -0.9971777362   -1.2357045441    2.4386459039
C       -0.9374289336    1.0226744787   -0.7295734210
C        1.3308246744    0.0748107194   -1.3800926200
N       -2.8848432844   -0.8085792712    5.6689700412
N       -3.4208425659   -0.9767204968    2.8773253083
N        0.0728800027   -0.0445770503   -0.6234618472
O        0.1485306662   -1.2881102564    2.8791933439
H       -4.9616154014   -0.5834427707    5.8492573623
H       -5.4203952468   -0.7279342798    3.4463767692
H       -0.8873095345   -1.0498052204    5.1200530366
H       -2.2231962027   -1.1606149089    0.6580860512
H        0.7282632193   -1.7216789275    0.3686001135
H       -1.2950408676    1.3128657478    0.2636173515
H       -1.7840469535    0.6826129960   -1.3344459394
H       -0.5084664597    1.9118260295   -1.2022942868
H        1.1547136934   -0.1552767520   -2.4359304906
H        2.0876414565   -0.6163622226   -0.9956336327
H        1.7313553922    1.0898334456   -1.2960137236
24   

C       -4.1395052895   -0.9098352771    5.3196753161
C       -4.4542214447   -1.3095134539    4.0062841295
C       -2.1238814216   -0.1347670321    4.5978000757
C       -2.4161993056   -0.5334039522    3.2668630671
C       -1.6524061687   -0.7380593230    0.8556710597
C       -0.5977991070   -0.9828354996   -0.0419927085
C       -1.3905066287   -0.3283084912    2.2149040421
C       -0.2485669128    1.3597665042   -0.6109749320
C        0.9706255482   -0.4926869398   -1.8446789660
N       -2.9749585335   -0.3150307271    5.6310851589
N       -3.6098840891   -1.1256946012    2.9760117664
N       -0.0331895475   -0.0787168568   -0.8505829540
O       -0.2998973599    0.1556792731    2.5055158054
H       -4.8638021762   -1.0914804620    6.1048559974
H       -5.4090269818   -1.7866514719    3.8190606843
H       -1.1700910778    0.3330506017    4.8130353527
H       -2.5796715419   -1.2676211209    0.6869934804
H       -0.4874063440   -2.0190435763   -0.3480388709
H       -1.3169202663    1.5780484608   -0.5153258249
H        0.1383328817    1.9494736829   -1.4478193250
H        0.2669441994    1.6728720494    0.3027227127
H        0.7436456392   -0.0477632381   -2.8185400120
H        0.9815259623   -1.5806863550   -1.9642068496
H        1.9677121492   -0.1719625732   -1.5257720981
24   

C       -4.0863890408   -0.8308550860    5.3035151020
C       -4.4016690805   -1.3390949029    4.0283425867
C       -2.1120459969   -0.0356857295    4.4952340943
C       -2.4053768473   -0.5424653595    3.2014549815
C       -1.6704110245   -0.8971669345    0.8017764989
C       -0.6427459250   -1.0746836508   -0.1276012808
C       -1.4059907922   -0.3667819504    2.1185802547
C       -0.2830104224    1.3211274163   -0.5257092875
C        0.9838824825   -0.4431901719   -1.8308166139
N       -2.9418904590   -0.1714178972    5.5522653352
N       -3.5779938352   -1.2012798881    2.9743720541
N       -0.0356841461   -0.1021281923   -0.8251401556
O       -0.3404360755    0.1935398049    2.3611015650
H       -4.7935271621   -0.9797074627    6.1109191682
H       -5.3401776977   -1.8633345928    3.8915553864
H       -1.1754151793    0.4839891525    4.6612742630
H       -2.5508083916   -1.5165087576    0.7008860533
H       -0.5773044277   -2.0691775062   -0.5591456609
H       -1.3431269711    1.4969595740   -0.3178393252
H       -0.0086674993    1.9437451190   -1.3828490411
H        0.3118804386    1.6376833973    0.3367070713
H        0.8045645190    0.1125027973   -2.7565114699
H        0.9610482316   -1.5112875297   -2.0690266430
H        1.9804194543   -0.1962214557   -1.4504131521
24   

C       -4.0703855530   -0.7897551406    5.2711227521
C       -4.3644159756   -1.3798532613    4.0265456898
C       -2.1193421991    0.0206856720    4.4225996601
C       -2.3916740975   -0.5674421149    3.1587218464
C       -1.6434146842   -1.0349694144    0.7869596276
C       -0.6717114441   -1.1362251631   -0.2011565663
C       -1.3992329374   -0.4120430837    2.0656800810
C       -0.3063984098    1.2885270252   -0.4852147480
C        0.9922379481   -0.4174767853   -1.8290493547
N       -2.9481043219   -0.0816114390    5.4842481703
N       -3.5414211953   -1.2765575223    2.9681212015
N       -0.0237050764   -0.1245103156   -0.8044243313
O       -0.3601641296    0.2054861133    2.2814049741
H       -4.7760202564   -0.9137959617    6.0840154738
H       -5.2859397858   -1.9395722347    3.9177758588
H       -1.2012051662    0.5799613552    4.5609070331
H       -2.4818572691   -1.7153179500    0.7310847764
H       -0.6436286802   -2.0894044307   -0.7209870978
H       -1.3510376688    1.4228880478   -0.1879886027
H       -0.1335797642    1.9183315419   -1.3632357832
H        0.3462114341    1.6343162187    0.3224534696
H        0.8390804818    0.2146039272   -2.7093543286
H        0.9374262839   -1.4618585347   -2.1521105854
H        1.9928734138   -0.2333094706   -1.4246665653
24   

C       -4.0643886940   -0.7849829678    5.2646533839
C       -4.3173484650   -1.4485456629    4.0484274946
C       -2.1369538582    0.0621133961    4.3981845142
C       -2.3688228516   -0.5980748033    3.1619400071
C       -1.5839466990   -1.1410987087    0.8205544347
C       -0.6917623998   -1.1569314940   -0.2359213362
C       -1.3770794820   -0.4434855110    2.0676102065
C       -0.3212535707    1.2827330891   -0.4374752990
C        0.9796610501   -0.3796691221   -1.8267964764
N       -2.9744204621   -0.0219835404    5.4546132126
N       -3.4852383995   -1.3644744604    2.9954761016
N       -0.0133507653   -0.1221979762   -0.7701481082
O       -0.3744175085    0.2367587250    2.2640299572
H       -4.7759439089   -0.8959909467    6.0742609025
H       -5.2144287407   -2.0495998435    3.9573227105
H       -1.2457255786    0.6672772267    4.5180322875
H       -2.3751072607   -1.8778105671    0.8005268620
H       -0.6996480609   -2.0718369960   -0.8211711667
H       -1.3525598616    1.3873928595   -0.0868131605
H       -0.2127970935    1.9162985474   -1.3229861925
H        0.3619475053    1.6491580571    0.3351106684
H        0.8488983504    0.3238406466   -2.6550313500
H        0.8747756832   -1.3921302687   -2.2293344865
H        1.9908763941   -0.2710601379   -1.4215110565
24   

C       -4.0803565977   -0.7796117603    5.2844749269
C       -4.2724933904   -1.5101070671    4.0958525851
C       -2.1776774626    0.1225981403    4.4189111132
C       -2.3492543381   -0.6030279759    3.2096374363
C       -1.4985354885   -1.1997773682    0.9056888591
C       -0.6867210470   -1.1501980025   -0.2079793935
C       -1.3497780076   -0.4371435998    2.1234417667
C       -0.2497335579    1.2842115527   -0.3635484439
C        0.9918295677   -0.3811867689   -1.7937830178
N       -3.0333029566    0.0441859292    5.4611553208
N       -3.4217360664   -1.4327342383    3.0574219949
N        0.0381600647   -0.1236503713   -0.7009454782
O       -0.3944273879    0.3105051977    2.3072299713
H       -4.8046913017   -0.8878443927    6.0830491317
H       -5.1373488940   -2.1579218270    4.0141219472
H       -1.3216697231    0.7784879679    4.5280464560
H       -2.2439860033   -1.9829697908    0.9121912653
H       -0.7388810451   -2.0377586912   -0.8318717404
H       -1.2720295498    1.3979764511    0.0099302533
H       -0.1559315303    1.9163245829   -1.2517513385
H        0.4548540295    1.6456564396    0.3920691950
H        0.8280621040    0.3193386899   -2.6187522030
H        0.8769305586   -1.3953310570   -2.1893553964
H        2.0171510479   -0.2688961981   -1.4269524638
24   

C       -4.1095594736   -0.8449941927    5.2761572816
C       -4.2333893343   -1.6261377329    4.1109553088
C       -2.2482657656    0.1418641657    4.4130660847
C       -2.3522305574   -0.6326166801    3.2263932975
C       -1.4375818495   -1.2360624583    0.9483084519
C       -0.7074214669   -1.1301505869   -0.2149245612
C       -1.3507522965   -0.4327926589    2.1469945195
C       -0.1226652382    1.2774684242   -0.3200818811
C        0.9586014470   -0.4134262612   -1.8363407269
N       -3.1175707759    0.0462552131    5.4424780937
N       -3.3686625604   -1.5321338246    3.0855172321
N        0.0783114649   -0.1372382502   -0.6875251050
O       -0.4527367365    0.3838372771    2.3215890889
H       -4.8424194895   -0.9690857749    6.0645821345
H       -5.0560875490   -2.3275284771    4.0365484008
H       -1.4375538375    0.8542369504    4.5135600312
H       -2.1425702191   -2.0555797768    0.9707089358
H       -0.8187714320   -1.9918034127   -0.8668601459
H       -1.1366343872    1.4446562990    0.0561364261
H        0.0088302965    1.9215902258   -1.1948324921
H        0.6049217601    1.5799128813    0.4396800141
H        0.7075092046    0.2418021536   -2.6765668497
H        0.8568982741   -1.4493625723   -2.1750777184
H        2.0031768082   -0.2498417965   -1.5527746576
24   

C       -4.1611187863   -1.0384143095    5.2441375986
C       -4.0862942983   -1.9025121097    4.1350926172
C       -2.6517524742    0.3524666961    4.2581057302
C       -2.5567550979   -0.5028449753    3.1272620046
C       -1.5270759145   -0.9974824839    0.8717003549
C       -0.7970772749   -0.9363281863   -0.3019619378
C       -1.6409912070   -0.1278209898    2.0157443199
C        0.3771969198    1.2555289929   -0.2985083193
C        0.6943086243   -0.4091398042   -2.1546134396
N       -3.4475948701    0.0978974450    5.3195775164
N       -3.2958658819   -1.6493279791    3.0774292004
N        0.0823792326   -0.0751386148   -0.8552301653
O       -0.9877373189    0.9032112372    2.1186673061
H       -4.8183911850   -1.3025643482    6.0640834103
H       -4.6863945155   -2.8048834590    4.1331144927
H       -2.0612704539    1.2608117410    4.2886895537
H       -2.1367271615   -1.8886463387    0.9241414795
H       -0.9811506325   -1.8191684529   -0.9074422022
H        0.9058826271    1.8693978704   -1.0338671321
H        1.0159554133    1.1666204359    0.5855125755
H       -0.5468031934    1.7858885753   -0.0541112206
H        0.5012339224    0.3888104444   -2.8789074878
H        0.2836810265   -1.3370242589   -2.5651098034
H        1.7754272036   -0.5353689013   -2.0388373012
24   

C       -4.0071929786   -0.9154338764    5.3367596250
C       -3.7829021538   -1.9202720058    4.3759252647
C       -2.9579245485    0.5962799337    3.9962462572
C       -2.7171075063   -0.3997291780    3.0119641598
C       -1.7574556139   -1.0296602556    0.7596176500
C       -1.0039566311   -0.9402337189   -0.3901528568
C       -1.9841780122   -0.0257730684    1.7746067114
C        0.7453563145    0.7198093220    0.1865139622
C        0.3726949651   -0.0397986980   -2.1824408881
N       -3.5994558450    0.3528046727    5.1597221186
N       -3.1444245591   -1.6793232209    3.2173015587
N       -0.0712110578   -0.0422867246   -0.7774563231
O       -1.6252785203    1.1381875442    1.6326193222
H       -4.5268944514   -1.1778127443    6.2506330501
H       -4.1359959637   -2.9247622730    4.5775240288
H       -2.6128017987    1.6090759840    3.8231479663
H       -2.2746427905   -1.9698635322    0.8924401316
H       -1.1832053075   -1.7591589122   -1.0808739659
H        1.7824672218    0.7822722609   -0.1568038431
H        0.7567565089    0.2293246534    1.1647416588
H        0.3579633522    1.7381555001    0.2913453586
H        0.1518623426    0.9293779087   -2.6409555648
H       -0.1388173477   -0.8145620893   -2.7623879819
H        1.4491271977   -0.2292636220   -2.2436664990
24   

C       -3.9778117480   -0.9011337811    5.3083367535
C       -3.6835412269   -1.9396015006    4.4036889143
C       -2.9951648941    0.5969880050    3.9036001841
C       -2.6862149893   -0.4327321731    2.9748609612
C       -1.6850483990   -1.1161754510    0.7567956178
C       -1.0075441760   -0.9746170104   -0.4359365312
C       -1.9688567400   -0.0803336883    1.7229003558
C        0.8101660928    0.5708105424    0.2341430433
C        0.3965139180   -0.0232579535   -2.1818587761
N       -3.6384140520    0.3773708310    5.0708562057
N       -3.0431083633   -1.7224341848    3.2414326506
N       -0.0246743276   -0.1127598080   -0.7730684033
O       -1.6759864010    1.0935563307    1.5188082485
H       -4.4963423027   -1.1452197931    6.2279260406
H       -3.9832805437   -2.9507510495    4.6527834884
H       -2.7067202472    1.6177225961    3.6805382321
H       -2.1602908680   -2.0737158804    0.9192769457
H       -1.2272213151   -1.7516355279   -1.1623712972
H        1.8552123872    0.5949295414   -0.0892240952
H        0.7786915335    0.0449515246    1.1933121858
H        0.4693643432    1.6014928365    0.3740894195
H        0.0951336371    0.9427327441   -2.5995835160
H       -0.0600624399   -0.8157929053   -2.7831831881
H        1.4831669572   -0.1256471662   -2.2644920842
24   

C       -3.9594291506   -0.8557568103    5.3282665072
C       -3.5979432888   -1.9146436884    4.4729258102
C       -3.0232055644    0.6301635869    3.8795387617
C       -2.6487687619   -0.4201075276    2.9993905927
C       -1.5889240426   -1.1393006235    0.8193245903
C       -1.0172925371   -0.9482983975   -0.4253713325
C       -1.9398225760   -0.0829904797    1.7389328737
C        0.8515543089    0.5268159852    0.2534598457
C        0.3847303648    0.0027480386   -2.1741569641
N       -3.6764701979    0.4270172448    5.0441972005
N       -2.9462523551   -1.7139434197    3.3139527395
N        0.0032157822   -0.1335389960   -0.7582619303
O       -1.7102469735    1.0949884716    1.4814317791
H       -4.4846792113   -1.0870918583    6.2473393316
H       -3.8547392496   -2.9281218041    4.7579434133
H       -2.7818827109    1.6539091786    3.6176519055
H       -2.0061882679   -2.1166687642    1.0186321127
H       -1.2946431060   -1.6895440529   -1.1691876524
H        1.8915569633    0.5605693248   -0.0850008960
H        0.8350792172   -0.0220303397    1.2000371151
H        0.5106343189    1.5526639013    0.4247172096
H        0.0570697913    0.9751396474   -2.5558589561
H       -0.0745038362   -0.7813850809   -2.7843671521
H        1.4702788305   -0.0787641253   -2.2879249515
24   

C       -3.9707278500   -0.8505267204    5.3386805488
C       -3.5332878601   -1.9131927410    4.5244188609
C       -3.0766864451    0.6402189970    3.8683746268
C       -2.6277317563   -0.4138405368    3.0288400825
C       -1.4873712244   -1.1348547852    0.8876276936
C       -1.0306995169   -0.9030799689   -0.4034627538
C       -1.9192635627   -0.0760583985    1.7687748210
C        0.8846508877    0.5202000164    0.2307987701
C        0.3629805281   -0.0056152385   -2.1889489670
N       -3.7467235310    0.4366505297    5.0233768070
N       -2.8637926452   -1.7119295995    3.3757201940
N        0.0270637522   -0.1544699043   -0.7631780163
O       -1.7523496303    1.1034336478    1.4713021726
H       -4.5075134086   -1.0825595501    6.2508884414
H       -3.7455182057   -2.9301146646    4.8328872447
H       -2.8838186677    1.6671277347    3.5800128976
H       -1.8350303050   -2.1317756452    1.1205754616
H       -1.3837076547   -1.6089846093   -1.1495502622
H        1.9095862721    0.6009970783   -0.1439061577
H        0.9231407644   -0.0467801150    1.1660585370
H        0.5104557418    1.5282606452    0.4347326879
H        0.0770963880    0.9924194243   -2.5366782355
H       -0.1629537038   -0.7477325530   -2.7978413260
H        1.4373625865   -0.1452857093   -2.3442426914
24   

C       -4.0151153485   -0.8742195243    5.3464161936
C       -3.4929306714   -1.9224814309    4.5639853949
C       -3.1631431728    0.6425981289    3.8776543793
C       -2.6304662201   -0.3968502098    3.0698894732
C       -1.3889933995   -1.0804451659    0.9687662336
C       -1.0378564453   -0.8233023927   -0.3585044527
C       -1.9153736038   -0.0392283091    1.8196601056
C        0.9334996662    0.5336412090    0.1897306428
C        0.3413140011   -0.0337103932   -2.2078881936
N       -3.8547498353    0.4187648594    5.0160764490
N       -2.8010508127   -1.7007334272    3.4324578492
N        0.0577879911   -0.1661547357   -0.7693851303
O       -1.8121159691    1.1408131092    1.4955971337
H       -4.5664180532   -1.1227082642    6.2455388861
H       -3.6571466484   -2.9451118172    4.8827375999
H       -3.0214617428    1.6739946968    3.5759117957
H       -1.6554858347   -2.0952206653    1.2296670399
H       -1.4867318029   -1.4868789047   -1.0917908376
H        1.9241452464    0.6945030045   -0.2465623894
H        1.0676191295   -0.0599189826    1.0994968163
H        0.5087202784    1.5074370850    0.4526843543
H        0.1338191212    0.9899344334   -2.5363458411
H       -0.2790575392   -0.7167958232   -2.7966421361
H        1.3902342809   -0.2708750844   -2.4113046695
24   

C       -4.0763913766   -0.9511299664    5.3573644147
C       -3.4490087582   -1.9579444632    4.5980894639
C       -3.3017108317    0.6225646675    3.9054892088
C       -2.6649019442   -0.3748667863    3.1210420148
C       -1.3085930983   -0.9621513571    1.0583168571
C       -1.0323479562   -0.7064833314   -0.2967186934
C       -1.9521130029    0.0311661123    1.8850022836
C        1.0141659083    0.5436761633    0.1305664489
C        0.3155678871   -0.0752019022   -2.2292659294
N       -4.0076667357    0.3493348640    5.0241847920
N       -2.7415352008   -1.6864664210    3.4872641637
N        0.0921035585   -0.1630569018   -0.7768243905
O       -1.9406121997    1.2099652562    1.5408651447
H       -4.6349655472   -1.2391245586    6.2400667487
H       -3.5431205027   -2.9893091963    4.9171460941
H       -3.2329927041    1.6603097828    3.6001073103
H       -1.4570460582   -1.9930954230    1.3478428206
H       -1.6013706931   -1.3056370624   -1.0015630302
H        1.9520415408    0.7776175596   -0.3826733910
H        1.2551487279   -0.0805793653    0.9968260040
H        0.5631915910    1.4800234718    0.4748137784
H        0.2029870505    0.9613756756   -2.5633039140
H       -0.4036636069   -0.6925720085   -2.7767225688
H        1.3216819512   -0.4265649303   -2.4785804217
24   

C       -3.8459199002   -0.9261331015    5.3569009335
C       -2.9460116446   -1.7533648048    4.6571812241
C       -4.0507548738    0.4018241999    3.5183213108
C       -3.1456957210   -0.4164593041    2.7930509578
C       -1.8982447211   -0.8740691575    0.6325614903
C       -1.3021433039   -0.3520241987   -0.5107160412
C       -2.8067528553   -0.0504125972    1.3965498142
C        0.9574738296   -0.1695888897    0.4190359707
C        0.4000384228    0.7270154547   -1.8943877748
N       -4.4092009428    0.1589668559    4.7978758789
N       -2.5894973999   -1.5132238081    3.3831763942
N       -0.0270937566    0.0595036147   -0.6529545642
O       -3.2926194024    0.9538369099    0.8818678760
H       -4.0896156022   -1.1760830428    6.3826952874
H       -2.5234940758   -2.6133766256    5.1634165360
H       -4.4829292703    1.2701860255    3.0345407607
H       -1.3955310396   -1.6726456402    1.1598882900
H       -2.0036498756    0.0842476974   -1.2178851390
H        1.2272467929   -1.2295307387    0.4639733819
H        0.5510782549    0.1422454694    1.3865727164
H        1.8664521978    0.4121388182    0.2362349187
H        1.0314298082    1.5909691532   -1.6648350063
H       -0.4628795691    1.0854247834   -2.4646651085
H        0.9632621478    0.0269038956   -2.5199845256
24   

C       -3.9506867003   -0.9757586796    5.3483395938
C       -2.9333190777   -1.7094533085    4.7076209154
C       -4.2201538641    0.2848907379    3.4712459770
C       -3.1971491794   -0.4395182219    2.8051947129
C       -1.7983620649   -0.7910668878    0.7179543541
C       -1.2554028616   -0.2463725925   -0.4298881545
C       -2.8383411926   -0.0645586309    1.4161157633
C        1.0814750215   -0.2560597597    0.3249873781
C        0.4147099187    0.7616254826   -1.9076749722
N       -4.6063514145    0.0277595300    4.7398495379
N       -2.5487430643   -1.4549815647    3.4445793455
N        0.0357580774    0.0866061450   -0.6547459977
O       -3.4150062849    0.8647913409    0.8559289176
H       -4.2107126428   -1.2317894440    6.3686089356
H       -2.4407687542   -2.5066938675    5.2518618743
H       -4.7243234908    1.0898686335    2.9490395513
H       -1.2344976164   -1.5260529238    1.2748670553
H       -1.9758923368    0.2299006590   -1.0910409522
H        1.2637881780   -1.3354756383    0.3204827937
H        0.7821044366    0.0570204437    1.3303735257
H        2.0186338133    0.2541740686    0.0811789686
H        1.1364089868    1.5597070543   -1.7077420120
H       -0.4583261307    1.2133466544   -2.3894246109
H        0.8601642298    0.0403657048   -2.6005853049
24   

C       -4.0268246645   -1.0458075692    5.3525695056
C       -2.9123819694   -1.6761806973    4.7654184683
C       -4.3376434902    0.1690519432    3.4521069453
C       -3.2172469087   -0.4515694888    2.8398303117
C       -1.6902465153   -0.6684362830    0.8245126522
C       -1.2055934150   -0.1196954082   -0.3397044608
C       -2.8377482657   -0.0525357718    1.4631490945
C        1.1808649617   -0.3082655605    0.2266668185
C        0.4148153579    0.7711612054   -1.9436187844
N       -4.7525957841   -0.1178922953    4.7050461963
N       -2.4984276451   -1.3914574350    3.5181206933
N        0.0877957243    0.1209706189   -0.6632451466
O       -3.4875789483    0.8033048786    0.8667182481
H       -4.3057529832   -1.3207587852    6.3628713078
H       -2.3673866222   -2.4164253354    5.3393320149
H       -4.8968300758    0.9154626016    2.8997554832
H       -1.0792689786   -1.3488992125    1.4004518091
H       -1.9440434793    0.3754481958   -0.9663352864
H        1.2618043557   -1.4000225590    0.2256413683
H        1.0021684488    0.0417935875    1.2483823211
H        2.1358688112    0.1086508717   -0.1082957542
H        1.2184160248    1.5013572640   -1.8064893932
H       -0.4537050759    1.3018861356   -2.3465485552
H        0.7336113255    0.0198637919   -2.6734877290
24   

C       -4.1019890665   -1.1252866564    5.3346204697
C       -2.9029178237   -1.6437037454    4.8076955736
C       -4.4357139709    0.0490709965    3.4128308093
C       -3.2305411584   -0.4593690140    2.8608584505
C       -1.5919901629   -0.5338276721    0.9257402065
C       -1.1515387412   -0.0024913018   -0.2593363654
C       -2.8262820690   -0.0314188366    1.4999832321
C        1.2482087656   -0.3905032414    0.1313054687
C        0.4143558235    0.7300141301   -1.9916628925
N       -4.8823011861   -0.2746898067    4.6457169625
N       -2.4571688164   -1.3219936508    3.5804766570
N        0.1306334915    0.1237472106   -0.6797407314
O       -3.5314386759    0.7501997278    0.8654955350
H       -4.4028670538   -1.4247321198    6.3315705952
H       -2.3173485115   -2.3258094567    5.4128223307
H       -5.0379491734    0.7350119183    2.8282644760
H       -0.9497875299   -1.1672386769    1.5208062055
H       -1.8987064712    0.5062576696   -0.8642132465
H        1.2195931329   -1.4844519750    0.1631630582
H        1.1939830091    0.0046753035    1.1507289812
H        2.2076468373   -0.0840554166   -0.2972199413
H        1.2818831919    1.3939461777   -1.9253853016
H       -0.4357826247    1.3250597663   -2.3403245632
H        0.6174788517   -0.0531355272   -2.7293551971
24   

C       -4.2876172708   -1.1537654242    5.2364045720
C       -4.3654766978   -0.4344051830    4.0278026455
C       -2.1669711349   -1.7966563463    4.7140637858
C       -2.2217158393   -1.0788082654    3.4903044520
C       -1.0817599591   -0.3640804278    1.3403986046
C       -0.0069655727   -0.4473399251    0.4962869455
C       -1.0405879459   -1.0945406155    2.5940329725
C       -1.1367627094    0.4857724535   -1.4835231386
C        1.3048950653   -0.2126310937   -1.5555534686
N       -3.1902213784   -1.8425765190    5.5944142493
N       -3.3474446258   -0.3880121896    3.1504089686
N        0.0416192895   -0.0866183743   -0.8087986407
O       -0.0342096249   -1.7227778855    2.9156954041
H       -5.1450286543   -1.1496499970    5.8989251646
H       -5.2785081357    0.1012056500    3.7958258712
H       -1.2648784466   -2.3407831722    4.9691809329
H       -1.9844444899    0.1534171234    1.0490733480
H        0.8897720656   -0.9187721878    0.8916978413
H       -1.3798935289    1.4633606729   -1.0547750924
H       -1.9979425182   -0.1819398097   -1.3794257001
H       -0.9413883543    0.6193371812   -2.5522011048
H        1.1161541913   -0.6026742784   -2.5605949763
H        1.9899832423   -0.9028357426   -1.0528739411
H        1.7914918797    0.7649008673   -1.6354556384
24   

C       -4.2752461112   -1.1565187937    5.2388801230
C       -4.3921388793   -0.5144205695    3.9905678609
C       -2.1137226798   -1.6876024982    4.7603119988
C       -2.2076025054   -1.0471801136    3.4965790450
C       -1.1081744482   -0.3966032440    1.3068941756
C       -0.0100437265   -0.4225271490    0.4893267757
C       -1.0238906758   -1.0417877648    2.6034543446
C       -1.0194911543    0.8580532743   -1.3553273212
C        1.3436783266   -0.0572063235   -1.5146176490
N       -3.1373215939   -1.7495687157    5.6392707095
N       -3.3736491630   -0.4517233619    3.1147271779
N        0.1003436170    0.1199367658   -0.7447931056
O        0.0175958720   -1.5871749512    2.9624760282
H       -5.1355490291   -1.1711828223    5.8974909987
H       -5.3368505172   -0.0544988972    3.7254094230
H       -1.1799705511   -2.1565854516    5.0485622376
H       -2.0258357203    0.0857367189    1.0025755713
H        0.8708504298   -0.9388040690    0.8636103571
H       -1.3293209759    1.6845844443   -0.7078709759
H       -1.8686145468    0.1874026406   -1.5221931617
H       -0.7216708694    1.2788314580   -2.3209405773
H        1.1848544446   -0.7785460401   -2.3227120922
H        2.1525895729   -0.4258518385   -0.8756835625
H        1.6643218753    0.8978130439   -1.9425539460
