26   

C        0.3833040643   -0.4961921853   -0.3399102908
C        7.4795932515   -0.2461205672    4.7883797299
C        1.5796904443    0.1762216150   -0.0742127943
C       -0.1360159578   -1.3877802205    0.6027433671
C        6.9671840108   -0.6875824164    3.5650174093
C        6.6066200540    0.1751778328    5.7951811474
C        2.2544508451   -0.0445448874    1.1325678776
C        0.5399919279   -1.6030475386    1.8093928555
C        5.5836937555   -0.7062929959    3.3506197236
C        5.2240149284    0.1516909199    5.5779178291
C        1.7419217659   -0.9349446795    2.0873292042
C        4.6975707677   -0.2883288725    4.3541982531
C        2.4376097912   -1.1515483669    3.3572829463
C        3.2500796820   -0.3257621338    4.1367681764
H       -0.1412097725   -0.3255152463   -1.2732790876
H        8.5505397311   -0.2321589938    4.9566203774
H        1.9841276063    0.8712044824   -0.8012021526
H       -1.0637277447   -1.9110951862    0.4009157851
H        7.6406754820   -1.0184610197    2.7827033274
H        6.9997197754    0.5179709715    6.7455529093
H        3.1791354436    0.4840988892    1.3342573811
H        0.1262927130   -2.2926855867    2.5358894468
H        5.1929642553   -1.0546438597    2.4013227461
H        4.5553879729    0.4757393850    6.3668875725
H        2.3066477617   -2.1434000721    3.7732226994
H        2.6990363398    0.4356825329    4.6757303164
26   

C        0.6188706898   -0.5015163166   -0.3404998289
C        7.3975165613   -0.1895056699    4.5746702235
C        1.7690881392    0.1881655255    0.0528604441
C        0.0251729287   -1.4158944680    0.5336123706
C        6.7884945362   -0.6964067457    3.4233486199
C        6.6082199672    0.2577201283    5.6375130293
C        2.3232882973   -0.0374935818    1.3185694516
C        0.5818236874   -1.6381901351    1.7985294823
C        5.3923793751   -0.7551585082    3.3367903477
C        5.2127108028    0.1966362189    5.5474699566
C        1.7370586981   -0.9534901319    2.2057626523
C        4.5882051539   -0.3088178810    4.3969351591
C        2.3031591079   -1.1803296901    3.5392687423
C        3.1259291432   -0.3847065777    4.3186123963
H        0.1871559545   -0.3260666940   -1.3194026584
H        8.4785600645   -0.1456021095    4.6441480989
H        2.2308844192    0.9011337532   -0.6205782200
H       -0.8682577359   -1.9515215603    0.2334189418
H        7.3969234904   -1.0478707075    2.5978877351
H        7.0764205160    0.6497336377    6.5332504335
H        3.2107831714    0.5088610371    1.6166316207
H        0.1097525825   -2.3460899256    2.4697125808
H        4.9305453149   -1.1577492557    2.4425738662
H        4.6110418279    0.5418458336    6.3801078018
H        2.0528613364   -2.1338163019    3.9888980926
H        2.5945401993    0.3047258819    4.9637953762
26   

C        0.8385565957   -0.4905489890   -0.3317119596
C        7.3150127458   -0.1537945812    4.3740007362
C        1.9048634954    0.2505750641    0.1844739972
C        0.2188668215   -1.4590693232    0.4619497862
C        6.6349296243   -0.7647946568    3.3171717369
C        6.5960393790    0.3626713194    5.4548750379
C        2.3487896839    0.0231323449    1.4925574666
C        0.6668149665   -1.6852762715    1.7685994200
C        5.2384111921   -0.8593345678    3.3431982306
C        5.1996893959    0.2683143456    5.4764618030
C        1.7372670033   -0.9493023998    2.3005710355
C        4.5026497956   -0.3418679163    4.4217904282
C        2.1831580841   -1.1832362847    3.6795195389
C        3.0394918692   -0.4517754391    4.4675231481
H        0.4915188128   -0.3129011183   -1.3433455635
H        8.3967251213   -0.0831160927    4.3567208758
H        2.3869850075    1.0051755794   -0.4264518401
H       -0.6110314734   -2.0339097106    0.0669176860
H        7.1885683710   -1.1696255094    2.4777134119
H        7.1196662480    0.8343183815    6.2786386868
H        3.1710615641    0.6117977423    1.8829092054
H        0.1740058442   -2.4363332720    2.3747527807
H        4.7247518300   -1.3440090072    2.5208363284
H        4.6549101562    0.6689945680    6.3232446335
H        1.7952869807   -2.0787861670    4.1502390159
H        2.5496040132    0.1470586222    5.2260995357
26   

C        1.0328928446   -0.4710536881   -0.3081002660
C        7.2298948762   -0.1366152881    4.1972982611
C        2.0003315715    0.3252935926    0.3101969853
C        0.4133869693   -1.4945832012    0.4131417134
C        6.5034134234   -0.8516183425    3.2415811422
C        6.5648308455    0.4529743867    5.2751037787
C        2.3446431518    0.0990452193    1.6481111522
C        0.7635486181   -1.7210736397    1.7492401963
C        5.1148194674   -0.9781927820    3.3662323082
C        5.1757918003    0.3284681241    5.3940013956
C        1.7331473021   -0.9291370042    2.3847261861
C        4.4319337776   -0.3872667625    4.4424104714
C        2.0722477920   -1.1659128237    3.7954234415
C        2.9765767456   -0.5276293742    4.5951040238
H        0.7622566903   -0.2938921114   -1.3428691549
H        8.3058560584   -0.0416882053    4.1041719458
H        2.4831933269    1.1215643887   -0.2446550027
H       -0.3408158839   -2.1122179124   -0.0611053342
H        7.0148008720   -1.3120209052    2.4039802478
H        7.1248093052    1.0050409645    6.0213284910
H        3.0915368805    0.7301770827    2.1160048615
H        0.2718476694   -2.5162613713    2.2971497141
H        4.5661439590   -1.5424020653    2.6207612452
H        4.6740523777    0.7880640545    6.2374043650
H        1.5340856548   -1.9731594697    4.2780455191
H        2.5479039172   -0.0470467724    5.4665796691
26   

C        1.2068015114   -0.4515407319   -0.2812606720
C        7.1495649136   -0.1240913160    4.0397073422
C        2.0738101624    0.3953595827    0.4141217391
C        0.6005089969   -1.5203115976    0.3834831106
C        6.3996643811   -0.9324681713    3.1813944741
C        6.5209116614    0.5277706470    5.1034878710
C        2.3297731096    0.1750333307    1.7726436728
C        0.8642032963   -1.7415920085    1.7401735936
C        5.0245680088   -1.0909577404    3.3902808232
C        5.1445792584    0.3723975365    5.3051304974
C        1.7308564102   -0.8981437000    2.4529201201
C        4.3782722717   -0.4382306034    4.4529855975
C        1.9778081076   -1.1317102303    3.8850696819
C        2.9363932139   -0.6092100946    4.6942701585
H        1.0040166724   -0.2789257108   -1.3321816332
H        8.2154549079   -0.0045333125    3.8818016108
H        2.5476345507    1.2256226046   -0.0969287357
H       -0.0762443914   -2.1773558369   -0.1508089157
H        6.8821696269   -1.4398719170    2.3539002508
H        7.0993902978    1.1524435523    5.7745447567
H        3.0004746707    0.8432300752    2.3006852425
H        0.3852904616   -2.5729422164    2.2439447961
H        4.4562156797   -1.7252620836    2.7196073366
H        4.6702285330    0.8819541858    6.1355723745
H        1.2931177547   -1.8162649558    4.3719506636
H        2.5824949363   -0.2754342789    5.6626804615
26   

C        1.3461345031   -0.4384851074   -0.2495895773
C        7.0740490744   -0.1158236571    3.9182128474
C        2.1328465489    0.4459877663    0.4931657676
C        0.7477973096   -1.5319680063    0.3817049746
C        6.3168453510   -0.9902655850    3.1340655708
C        6.4680626361    0.5706321348    4.9735827206
C        2.3157800188    0.2385410356    1.8654034016
C        0.9398475020   -1.7404158346    1.7524307582
C        4.9575528473   -1.1803353431    3.4092628133
C        5.1067385542    0.3839566614    5.2403704641
C        1.7244372075   -0.8588764594    2.5116147502
C        4.3346705475   -0.4932925287    4.4635820812
C        1.8974717575   -1.0806789140    3.9581562965
C        2.9080072388   -0.6951200967    4.7726542423
H        1.1997523161   -0.2761539942   -1.3114494023
H        8.1279750693    0.0285258917    3.7090978688
H        2.6014754659    1.2946252403    0.0082163232
H        0.1331773564   -2.2182595711   -0.1895914796
H        6.7811046125   -1.5236120415    2.3124939683
H        7.0524827803    1.2466737380    5.5872226678
H        2.9258402036    0.9328403161    2.4319793886
H        0.4697854242   -2.5911989340    2.2315210864
H        4.3807829251   -1.8633340254    2.7960064987
H        4.6478443578    0.9207810557    6.0622911999
H        1.0887644798   -1.6131561883    4.4451971634
H        2.6302705525   -0.5297229761    5.8071852327
26   

C        1.4393340950   -0.4382098268   -0.2215058602
C        7.0156584720   -0.1044844902    3.8408911731
C        2.1859842264    0.4663676000    0.5384853525
C        0.8297833460   -1.5303692339    0.4016971021
C        6.2607337822   -1.0116299103    3.0922282101
C        6.4218182405    0.5809608530    4.9040263117
C        2.3175857998    0.2800529937    1.9195927359
C        0.9711128893   -1.7174946468    1.7816692317
C        4.9160754506   -1.2350759861    3.4107387488
C        5.0745966464    0.3607878355    5.2135928420
C        1.7150086333   -0.8157118196    2.5569122643
C        4.3061037898   -0.5490437492    4.4725014654
C        1.8378587037   -1.0165489958    4.0133602846
C        2.8927851185   -0.7840488366    4.8243794472
H        1.3329700589   -0.2926922946   -1.2905330608
H        8.0583395972    0.0662582357    3.5980542935
H        2.6638528197    1.3135070002    0.0600076819
H        0.2462862689   -2.2322517817   -0.1831123873
H        6.7150985422   -1.5437055601    2.2643440365
H        7.0045974114    1.2823953683    5.4900867944
H        2.8980999999    0.9870443073    2.5013988108
H        0.4942971923   -2.5671568236    2.2560909744
H        4.3382873487   -1.9410553126    2.8250070038
H        4.6230071648    0.8966595473    6.0401905207
H        0.9402795233   -1.3733735264    4.5052071203
H        2.6796396635   -0.8025412333    5.8869772316
26   

C        1.5728313082   -0.9307093477   -0.2463393346
C        6.8838789984    0.3878013071    3.8644227202
C        2.6635596590   -1.5469931238    0.3735516780
C        0.5696850170   -0.3483931487    0.5331938599
C        5.8028873778    1.0080925499    3.2316043819
C        6.6520387262   -0.6118403296    4.8131289203
C        2.7467281319   -1.5836656971    1.7704501810
C        0.6614139159   -0.3801434756    1.9295562367
C        4.4933091132    0.6310422877    3.5516467161
C        5.3410312439   -0.9913749780    5.1237314115
C        1.7490723865   -0.9973971806    2.5639639447
C        4.2476890361   -0.3753097701    4.4980020711
C        1.8227902458   -1.0366415978    4.0384166303
C        2.8700834146   -0.7758785342    4.8486826206
H        1.5050642850   -0.9048687249   -1.3280235148
H        7.8985643824    0.6813801606    3.6204400794
H        3.4464207890   -1.9971059122   -0.2259944158
H       -0.2800677966    0.1272245137    0.0569384682
H        5.9767431996    1.7814962750    2.4923137482
H        7.4871333116   -1.0929829699    5.3093449294
H        3.5959854719   -2.0626065056    2.2446311958
H       -0.1205892545    0.0737022538    2.5269615280
H        3.6595237377    1.1157114634    3.0562976162
H        5.1696333680   -1.7674030447    5.8604817491
H        0.9145576406   -1.3604728010    4.5335066594
H        2.6656305146   -0.8274324854    5.9118888874
26   

C        1.5457716689   -0.9758576165   -0.2497047059
C        6.8859790530    0.4252694055    3.9017865082
C        2.6288981920   -1.5909786457    0.3841681745
C        0.5563232738   -0.3532204365    0.5158391533
C        5.7948196010    1.0376766579    3.2791637032
C        6.6715021289   -0.6040713601    4.8222196504
C        2.7180497357   -1.5865769897    1.7811351231
C        0.6539233065   -0.3438224893    1.9121517138
C        4.4923134820    0.6233878188    3.5813797372
C        5.3677367273   -1.0209306032    5.1150211832
C        1.7339073855   -0.9599924314    2.5614257367
C        4.2634130491   -0.4129854050    4.4998263612
C        1.8115432713   -0.9581208593    4.0346693904
C        2.8948944021   -0.8509440591    4.8343568308
H        1.4732275856   -0.9823251335   -1.3313706110
H        7.8950592314    0.7481134916    3.6719252103
H        3.4011341929   -2.0725824144   -0.2046042377
H       -0.2877056838    0.1215452427    0.0286823399
H        5.9552334073    1.8343438089    2.5618544515
H        7.5146022724   -1.0791490658    5.3106795466
H        3.5614012682   -2.0667264958    2.2644010116
H       -0.1185626032    0.1411035555    2.4973603977
H        3.6518187528    1.1045114023    3.0941231956
H        5.2113913504   -1.8196286879    5.8305582783
H        0.8649678953   -1.0930374846    4.5452369812
H        2.7310805561   -1.0910822374    5.8785720760
26   

C        1.4641812888   -1.0142697621   -0.2837708072
C        6.9374415127    0.4534228266    3.9785083474
C        2.5749908186   -1.5904560954    0.3383259056
C        0.4839484519   -0.3872367815    0.4896776718
C        5.8558822487    1.0394792756    3.3154394462
C        6.7135082265   -0.5803463599    4.8914296251
C        2.7012279869   -1.5430061968    1.7316468238
C        0.6179753447   -0.3348315431    1.8819840814
C        4.5531870229    0.5946427867    3.5696761452
C        5.4101016557   -1.0277477623    5.1367678982
C        1.7261975095   -0.9118627249    2.5206768110
C        4.3141467351   -0.4465830274    4.4808867565
C        1.8400553175   -0.8673681310    3.9892302367
C        2.9466124208   -0.9145482240    4.7680329607
H        1.3628844876   -1.0546223549   -1.3623976242
H        7.9463647037    0.8003554590    3.7860588219
H        3.3397818526   -2.0760720109   -0.2568604202
H       -0.3815790669    0.0573055477    0.0117894163
H        6.0238579162    1.8401590830    2.6043340498
H        7.5490440348   -1.0350118135    5.4113257948
H        3.5658349032   -1.9958575211    2.2034671556
H       -0.1492102147    0.1530263677    2.4716778457
H        3.7216744287    1.0586649627    3.0515014306
H        5.2484558899   -1.8293406276    5.8478501083
H        0.8998579115   -0.8077965635    4.5251671564
H        2.8003200570   -1.3411038626    5.7536277988
26   

C        1.3353406852   -1.0518155526   -0.3281296494
C        7.0146685193    0.4737160109    4.0951117140
C        2.5027543475   -1.5521136460    0.2544158974
C        0.3594135441   -0.4573233127    0.4755400416
C        5.9659891003    1.0139539823    3.3461609252
C        6.7546086429   -0.5381976726    5.0225483481
C        2.6905236435   -1.4610543239    1.6386498994
C        0.5537342313   -0.3618411209    1.8583676974
C        4.6596647269    0.5449746397    3.5284498167
C        5.4482470577   -1.0094000533    5.1971237832
C        1.7200029053   -0.8619255243    2.4585782658
C        4.3839256918   -0.4750470931    4.4540162597
C        1.8966032722   -0.7745877339    3.9171624202
C        3.0129778578   -0.9659107416    4.6681191572
H        1.1866513707   -1.1262387421   -1.3994391742
H        8.0259899474    0.8395934387    3.9583131430
H        3.2636285068   -2.0136146477   -0.3645393276
H       -0.5498490521   -0.0717662376    0.0285958080
H        6.1622402771    1.7986983837    2.6245795485
H        7.5643113790   -0.9572553610    5.6090157633
H        3.5986978802   -1.8582499565    2.0775298373
H       -0.2125249284    0.0995681572    2.4701164927
H        3.8551303923    0.9770540367    2.9443326608
H        5.2604218518   -1.7930227258    5.9216553755
H        1.0051594557   -0.5265172811    4.4813071084
H        2.8654530790   -1.5650338818    5.5590501706
26   

C        1.1705972235   -1.1054256926   -0.3562461943
C        7.0866222345    0.4958546356    4.2538874438
C        2.4041528477   -1.5069927650    0.1628707567
C        0.2036481404   -0.5642599641    0.4944814166
C        6.0941625106    0.9789248393    3.3971102485
C        6.7689516169   -0.4793178831    5.2024203987
C        2.6678130096   -1.3694965266    1.5308387397
C        0.4724482993   -0.4237993500    1.8608966827
C        4.7863078044    0.4887000082    3.4916792719
C        5.4613646689   -0.9706816991    5.2909685515
C        1.7067090900   -0.8232035636    2.3977480255
C        4.4529880106   -0.4949113128    4.4377719916
C        1.9637533199   -0.6898890550    3.8390264198
C        3.0798227715   -1.0052612112    4.5598578193
H        0.9636585703   -1.2155393668   -1.4147495803
H        8.0988177616    0.8779841751    4.1845193789
H        3.1574449976   -1.9286009347   -0.4927670547
H       -0.7564066580   -0.2552723569    0.0969554619
H        6.3351574525    1.7364493996    2.6601296243
H        7.5346717443   -0.8540003112    5.8721145426
H        3.6266908357   -1.6926385148    1.9197265111
H       -0.2886499675   -0.0057941516    2.5092007986
H        4.0257522728    0.8788787528    2.8250305171
H        5.2289767310   -1.7243345313    6.0341400516
H        1.1532287639   -0.2702575552    4.4231062081
H        2.9235216968   -1.7514349365    5.3299129117
26   

C        0.9809276766   -1.1725710589   -0.3759346530
C        7.1560023797    0.5224900380    4.4418827909
C        2.2774814427   -1.4660036566    0.0548569127
C        0.0390165587   -0.6919721425    0.5371777014
C        6.2457263755    0.9463783580    3.4700520122
C        6.7594513854   -0.4102854198    5.4034568233
C        2.6295996647   -1.2796634289    1.3969407849
C        0.3952490491   -0.5048360240    1.8777862558
C        4.9412562168    0.4382619401    3.4618460544
C        5.4550614458   -0.9177804302    5.3908538554
C        1.6939252956   -0.7944049628    2.3251050306
C        4.5298448684   -0.5020856776    4.4204565529
C        2.0476176613   -0.6125260341    3.7387183635
C        3.1587492670   -1.0277267593    4.4319140340
H        0.7059693567   -1.3198159117   -1.4142574352
H        8.1654359580    0.9178963746    4.4514885398
H        3.0109720441   -1.8419023528   -0.6492633659
H       -0.9690132440   -0.4663919362    0.2082195742
H        6.5478455160    1.6721389893    2.7236686029
H        7.4611633717   -0.7393189985    6.1614545779
H        3.6363701595   -1.5200490908    1.7189044756
H       -0.3465988048   -0.1358760503    2.5762832067
H        4.2430963048    0.7828719366    2.7076230204
H        5.1594533048   -1.6372250833    6.1454304483
H        1.3350792934   -0.0493301627    4.3295907218
H        2.9935739532   -1.8874532185    5.0703640188
26   

C        0.7808890761   -1.2475593443   -0.3984114130
C        7.2293396024    0.5545268354    4.6409302447
C        2.1272590430   -1.4426593645   -0.0780679246
C       -0.1112048077   -0.8160322378    0.5867783758
C        6.4239239038    0.9324908427    3.5630407221
C        6.7388230015   -0.3441564623    5.5919332867
C        2.5789635310   -1.2060652083    1.2257947892
C        0.3441001715   -0.5813305119    1.8894328301
C        5.1304492810    0.4115669449    3.4379844148
C        5.4447751800   -0.8621655478    5.4638471419
C        1.6934085966   -0.7720619192    2.2244121727
C        4.6259597156   -0.4921036902    4.3859685320
C        2.1578759491   -0.5400479043    3.5956709670
C        3.2656144878   -1.0267294776    4.2692673555
H        0.4291233171   -1.4326483625   -1.4070804097
H        8.2303324769    0.9589090782    4.7404266411
H        2.8221148519   -1.7808629048   -0.8382607634
H       -1.1567673925   -0.6653666393    0.3432025259
H        6.7989972270    1.6322012599    2.8249183769
H        7.3593728736   -0.6384927515    6.4306913006
H        3.6235957358   -1.3683553694    1.4653952083
H       -0.3580176164   -0.2515937374    2.6462446999
H        4.5112919140    0.7176829480    2.6025561770
H        5.0734639553   -1.5545940267    6.2102587961
H        1.5455427223    0.1363451593    4.1800456859
H        3.0960898481   -1.9672396310    4.7798116845
26   

C        0.5719529175   -1.3506191366   -0.4057441898
C        7.2868508383    0.6066136324    4.8608832160
C        1.9481345323   -1.4925094569   -0.2056152186
C       -0.2412873701   -0.9173413726    0.6450338343
C        6.5921075841    0.9787324024    3.7063598795
C        6.7095093117   -0.2965038081    5.7576990365
C        2.5082547429   -1.2004374292    1.0439070641
C        0.3222669574   -0.6296483892    1.8936290042
C        5.3224191209    0.4469068033    3.4506273440
C        5.4385043071   -0.8232346160    5.4999319438
C        1.7020788707   -0.7673012048    2.1067256792
C        4.7316146768   -0.4582310334    4.3443728015
C        2.2851939880   -0.4799935910    3.4189424652
C        3.3957663806   -0.9998907843    4.0864675477
H        0.1363201398   -1.5775614626   -1.3722561344
H        8.2695674108    1.0184084673    5.0611724855
H        2.5819895722   -1.8315931530   -1.0169948897
H       -1.3090751458   -0.8062478598    0.4942749142
H        7.0348607734    1.6815718163    3.0098886695
H        7.2446624704   -0.5875527321    6.6544390407
H        3.5755386847   -1.3175049177    1.1935358713
H       -0.3177576713   -0.2991154174    2.7033552425
H        4.7871517494    0.7437176066    2.5558743170
H        4.9975322385   -1.5190060088    6.2041959960
H        1.7641115892    0.2862178142    3.9804694262
H        3.2349701608   -1.9964983946    4.4799613012
