28

C      3.85661    0.98733    3.81259
C      3.13180    1.31239    2.66217
C      3.38485   -0.02012    4.66170
C      1.94785    0.63213    2.35798
C      2.20049   -0.69460    4.35533
C      1.47256   -0.38199    3.19923
C     -1.26603    0.77367    2.56263
C     -2.20063    2.75296    2.78476
C     -1.79190    2.22736    4.18285
C      0.55093   -2.45559    2.09592
C      0.21236   -1.17583    2.87107
N     -1.63720    1.77096    1.84574
N     -0.78750   -0.42644    2.09967
O     -1.38336    0.85600    3.92547
H      4.77501    1.51812    4.04998
H      3.48442    2.10064    2.00162
H      3.93487   -0.27392    5.56453
H      1.38656    0.91187    1.47061
H      1.83200   -1.46834    5.02672
H     -3.29095    2.80629    2.66849
H     -1.79730    3.75111    2.58780
H     -0.93103    2.75711    4.60276
H     -2.60159    2.20348    4.91469
H      1.02051   -2.21242    1.13551
H      1.25824   -3.06627    2.66248
H     -0.35421   -3.04158    1.90835
H     -0.26153   -1.45833    3.81526
H     -0.63572   -0.39747    1.09768
