36

C      0.00440    2.28598   -1.94770
C      1.76179    3.45284   -3.08400
C     -1.39445    0.45984   -1.13596
C      6.39599    2.03835   -0.57714
C     -1.36766    2.62222    0.04160
C     -1.89724   -1.55030   -2.38564
C     -2.04909    0.62685   -3.54634
C      5.77865    3.40202   -0.90698
C      4.69328    3.30075   -1.98765
C      4.07581    4.65759   -2.30399
N      0.65318    1.54019   -2.81061
N      1.64641    2.22400   -3.46502
N     -1.06209    1.86996   -1.18370
N     -1.77806   -0.09735   -2.31101
O     -1.36694   -0.12363   -0.05626
O      3.74020    3.89971   -4.88506
S      0.60156    3.95148   -1.85502
S      2.98049    4.62312   -3.80461
H      6.85531    1.59020   -1.46503
H      7.16989    2.12895    0.19228
H      5.63653    1.33966   -0.20877
H     -1.62788    3.65165   -0.22160
H     -0.52571    2.61980    0.74168
H     -2.22200    2.15523    0.52732
H     -2.93829   -1.83982   -2.57191
H     -1.56973   -1.98769   -1.44458
H     -1.27339   -1.92625   -3.20423
H     -1.22050    0.52277   -4.25336
H     -2.20874    1.68467   -3.34161
H     -2.96280    0.22052   -3.99321
H      5.35387    3.84326    0.00438
H      6.56561    4.08838   -1.24511
H      5.11799    2.88577   -2.90787
H      3.91202    2.60559   -1.66200
H      3.47567    5.06264   -1.48145
H      4.84056    5.39591   -2.56910
