28

C      3.61731    0.81089    3.85110
C      3.44314    0.29545    2.56220
C      2.58526    0.68964    4.78690
C      2.24593   -0.33751    2.21588
C      1.38777    0.05836    4.43651
C      1.20467   -0.46477    3.14801
C     -1.66336    0.81417    2.85644
C     -2.69895    1.97781    4.41557
C     -2.77528    2.75605    3.07555
C     -0.00801   -2.34994    1.90281
C     -0.13064   -1.09995    2.77706
N     -1.86040    0.80750    4.12430
N     -1.02082   -0.13372    2.10626
O     -2.18047    1.84661    2.11084
H      4.54923    1.30039    4.12278
H      4.24120    0.38234    1.82889
H      2.71148    1.08864    5.79045
H      2.13256   -0.73830    1.21143
H      0.57648   -0.01481    5.15485
H     -2.25331    2.58128    5.21333
H     -3.69006    1.65640    4.75957
H     -3.79177    2.97917    2.74411
H     -2.18272    3.67599    3.07783
H      0.39844   -2.11842    0.91231
H      0.65530   -3.08111    2.37353
H     -0.99348   -2.80187    1.76078
H     -0.64417   -1.36927    3.70157
H     -0.68534    0.22170    1.21706
