19   
Generated by ForceBalance from scan.xyz: Frame 1 of 24
C       -0.2939121926    1.8346534310    3.3873404169
C       -0.5802726060    0.6451313120    2.6298327967
C        0.4458197742    2.6398382373    2.5750516687
C        0.0128397708    0.8061618628    1.4066341921
C       -0.3305730195   -1.4053281251    0.1165793124
C       -0.2783997022    0.7850683966   -1.1645334074
C        1.1326539116    0.3961484058   -0.8975062693
C        0.0593641025    0.0337619054    0.1430043691
O       -0.3336654928   -2.0905310108   -0.8920784637
O        0.6439642545    2.0301088348    1.3620336570
O       -0.6895241928   -1.9149589724    1.3234070804
H       -0.5989780234    2.0529345090    4.4024239417
H       -1.1420585511   -0.2169398789    2.9532288584
H        0.8960957109    3.6153333428    2.6883703035
H       -0.5612598373    1.8237604812   -1.0324311163
H       -0.8357012109    0.2191366778   -1.9028796501
H        1.5411769363   -0.4401259885   -1.4536239720
H        1.8330954334    1.1647979959   -0.5927076305
H       -0.9101151019   -2.8515954202    1.1543712087
19   
Generated by ForceBalance from scan.xyz: Frame 2 of 24
C       -0.2237172128    1.8078346454    3.4074337862
C       -0.4507067662    0.5869512166    2.6794445428
C        0.3219915625    2.6886608217    2.5239823893
C       -0.0249205060    0.8093651670    1.3974401545
C       -0.4052720682   -1.3962938142    0.1001936429
C       -0.2250450078    0.7808535600   -1.1841604712
C        1.1610522059    0.3468977701   -0.8598864202
C        0.0295218588    0.0297603853    0.1382816443
O       -0.3962505528   -2.0826421195   -0.9075922876
O        0.4511698648    2.0985563981    1.2918550711
O       -0.8212179116   -1.8944207187    1.2934193553
H       -0.4401727995    1.9961028095    4.4508852411
H       -0.8716069763   -0.3305863389    3.0578764942
H        0.6605281455    3.7123941362    2.5914526208
H       -0.4762664121    1.8297866484   -1.0739178470
H       -0.7698733013    0.2269945806   -1.9405108765
H        1.5662418865   -0.5056961571   -1.3932867342
H        1.8714713071    1.0948821623   -0.5268357199
H       -1.0685837217   -2.8226895181    1.1151964841
19   
Generated by ForceBalance from scan.xyz: Frame 3 of 24
C        0.3948337925    1.8753498782    3.4985321042
C        0.4316375872    0.6081598741    2.8170765271
C        0.0019137210    2.7971852029    2.5763035110
C        0.0530878145    0.8462728074    1.5231539403
C       -0.0009648167   -1.4485089418    0.3337606494
C       -0.9960766035    0.5670191140   -0.8318132205
C        0.4785036085    0.6401650123   -1.0218714263
C       -0.0790202498    0.0402398574    0.2866182867
O       -0.0840918028   -2.1659880526   -0.6486589435
O       -0.2117325655    2.1893701723    1.3648177895
O        0.1709375380   -1.9667815988    1.5774345251
H        0.6288455194    2.0659557611    4.5377713419
H        0.6974268851   -0.3502230125    3.2336773488
H       -0.1737704130    3.8628204985    2.6033293265
H       -1.5331652653    1.4788788226   -0.5979960826
H       -1.5417609308   -0.1911709910   -1.3821622218
H        0.9428768892   -0.0648653736   -1.7023887832
H        0.9652989231    1.6028609455   -0.9111994438
H        0.1990872461   -2.9354956344    1.4533474717
19   
Generated by ForceBalance from scan.xyz: Frame 4 of 24
C        0.4646138446    1.8787907405    3.4677790781
C        0.5792157972    0.6326405334    2.7583309532
C       -0.1372184219    2.7535955863    2.6139680597
C        0.0292745056    0.8318490775    1.5209019641
C       -0.0656179586   -1.4638237581    0.3480080787
C       -0.9373314212    0.5749600552   -0.8756191857
C        0.5463057504    0.5940211589   -1.0048676146
C       -0.0924605836    0.0267679105    0.2828365074
O       -0.1407715650   -2.1898402296   -0.6287480450
O       -0.4107185378    2.1334964790    1.4214037444
O        0.0518350091   -1.9697580924    1.6028939555
H        0.7858064504    2.0879316775    4.4798107809
H        1.0008495631   -0.2914507893    3.1224747446
H       -0.4389324774    3.7885685991    2.6848888586
H       -1.4527854063    1.5069491383   -0.6764668985
H       -1.4840914383   -0.1694039460   -1.4434163752
H        1.0146745927   -0.1317324545   -1.6606051101
H        1.0634341786    1.5391293865   -0.8778227687
H        0.0498995866   -2.9404319298    1.4925565505
19   
Generated by ForceBalance from scan.xyz: Frame 5 of 24
C        0.5258430209    1.9032686958    3.4481071824
C        0.7416900117    0.7087284230    2.6782575564
C       -0.2965476052    2.6949994044    2.7021171737
C        0.0257672315    0.8502140277    1.5210047620
C       -0.1591094160   -1.4450476427    0.3722744214
C       -0.8762323908    0.6255479635   -0.9032577565
C        0.6095526468    0.5560082160   -0.9883070892
C       -0.1026488919    0.0448449514    0.2842721963
O       -0.2504716028   -2.1841216625   -0.5933866387
O       -0.6128924098    2.0700514058    1.5241023313
O       -0.0944674715   -1.9297806645    1.6387995993
H        0.9283079109    2.1364252144    4.4252360690
H        1.3337685407   -0.1515243570    2.9548235545
H       -0.7375781264    3.6702690381    2.8492362697
H       -1.3441251854    1.5876545470   -0.7323633041
H       -1.4478191490   -0.0925922429   -1.4803424732
H        1.0534536940   -0.2039063235   -1.6221747471
H        1.1795853603    1.4696648138   -0.8556829767
H       -0.1465420444   -2.9010008930    1.5483789030
19   
Generated by ForceBalance from scan.xyz: Frame 6 of 24
C        0.5576893796    1.9079712695    3.4116491414
C        0.9300897821    0.8245447733    2.5448616234
C       -0.5034062759    2.5242061623    2.8138450495
C        0.0677487692    0.8513199759    1.4843633347
C       -0.2381703913   -1.4573230779    0.3979383787
C       -0.7717442172    0.6247941244   -0.9529603358
C        0.7059541067    0.4463048390   -1.0006516509
C       -0.0667315640    0.0220192296    0.2657134245
O       -0.3439161435   -2.2227844560   -0.5456582335
O       -0.8194515187    1.8930888067    1.6411023183
O       -0.2637561522   -1.8935937156    1.6825659133
H        1.0184597534    2.1893173234    4.3495247576
H        1.7240096325    0.1058420518    2.6962471826
H       -1.1175478556    3.3755456595    3.0699942242
H       -1.1762627955    1.6205477077   -0.8139638210
H       -1.3814258350   -0.0637478629   -1.5271341345
H        1.1046735402   -0.3608739644   -1.6055857890
H        1.3401925272    1.3181658150   -0.8796305802
H       -0.3862549126   -2.8609529523    1.6270880126
19   
Generated by ForceBalance from scan.xyz: Frame 7 of 24
C        0.6108776636    1.9347812073    3.3760287399
C        1.0929772203    1.0017283515    2.3959238678
C       -0.6312960481    2.3151944238    2.9554542171
C        0.1152744730    0.8821654280    1.4480785039
C       -0.3124100085   -1.4221847091    0.4080209416
C       -0.6663893681    0.6610137447   -1.0012470227
C        0.7975418817    0.3887757531   -1.0060688676
C       -0.0230711964    0.0359910582    0.2443877872
O       -0.3975973030   -2.2165951701   -0.5132613826
O       -0.9533527311    1.6828416039    1.7868964398
O       -0.4854418121   -1.7942177782    1.7010286872
H        1.1191548286    2.2760125024    4.2683348027
H        2.0404040951    0.4789095930    2.3962563497
H       -1.3752235366    2.9967083162    3.3427414005
H       -1.0121847038    1.6818805815   -0.8831922748
H       -1.3054928355    0.0048345822   -1.5814092000
H        1.1553782484   -0.4538678261   -1.5877424380
H        1.4836787490    1.2209401142   -0.8906556602
H       -0.6809431485   -2.7506655121    1.6764015146
19   
Generated by ForceBalance from scan.xyz: Frame 8 of 24
C        0.6139998926    1.9862572069    3.3336230405
C        1.1261555651    1.1403981154    2.2907877222
C       -0.7096415179    2.1698544579    3.0531604899
C        0.0823658127    0.8746691225    1.4491566862
C       -0.4286456363   -1.4174162158    0.4347461475
C       -0.6101266239    0.6545269925   -1.0296747445
C        0.8370487178    0.3045806496   -0.9599887218
C       -0.0557093362    0.0201125255    0.2532605773
O       -0.5479660062   -2.2223611409   -0.4731293821
O       -1.0531293984    1.5015330540    1.9113164513
O       -0.6324235814   -1.7533430619    1.7328878043
H        1.1559917921    2.4003363520    4.1737020004
H        2.1369277632    0.7697114525    2.1809511726
H       -1.5040398342    2.7248429763    3.5316048412
H       -0.9026679570    1.6955299137   -0.9460756001
H       -1.2557035453    0.0224262196   -1.6292450069
H        1.1740099938   -0.5663517742   -1.5115078711
H        1.5607642960    1.1023520936   -0.8326280684
H       -0.8786062206   -2.6982857364    1.7278923629
19   
Generated by ForceBalance from scan.xyz: Frame 9 of 24
C        0.6205106853    2.0553658445    3.2882391858
C        1.1373595175    1.2700382993    2.2004012161
C       -0.7357924134    2.0650583510    3.1338198549
C        0.0612171851    0.8614725594    1.4631744103
C       -0.5168650727   -1.4012898537    0.4235101852
C       -0.5442719486    0.6788384475   -1.0456634889
C        0.8809377639    0.2584156873   -0.9104314122
C       -0.0781134415    0.0201146104    0.2591602076
O       -0.6912008531   -2.1839557126   -0.4946803059
O       -1.0957706663    1.3483289093    2.0266525523
O       -0.7026280600   -1.7508210202    1.7204692902
H        1.1809802920    2.5425342765    4.0752745545
H        2.1725613517    1.0297264345    1.9965255320
H       -1.5470972681    2.5141612081    3.6888623652
H       -0.7851209598    1.7340825061   -0.9751577393
H       -1.1928759476    0.0783377703   -1.6738767000
H        1.1999048575   -0.6284321105   -1.4468447225
H        1.6359462610    1.0215276994   -0.7560177806
H       -0.9880446174   -2.6845459731    1.7072284826
19   
Generated by ForceBalance from scan.xyz: Frame 10 of 24
C        0.6066198790    2.1373437228    3.2507027932
C        1.1244603731    1.3979729299    2.1310081194
C       -0.7486496999    1.9825962334    3.2093328255
C        0.0491009156    0.8441624548    1.4935408938
C       -0.5968534359   -1.3813414524    0.4127133710
C       -0.4766611941    0.7108155077   -1.0399027357
C        0.9197161137    0.2151853343   -0.8524734812
C       -0.0956886903    0.0228340881    0.2764688623
O       -0.8399877774   -2.1238962081   -0.5229063372
O       -1.1081244568    1.2072501200    2.1419563470
O       -0.7421356157   -1.7687383396    1.7037184462
H        1.1671115048    2.7010445584    3.9847986492
H        2.1618925931    1.2788803760    1.8479852518
H       -1.5601042800    2.3364424415    3.8292168541
H       -0.6607403243    1.7775746853   -0.9713287627
H       -1.1318418578    0.1483066380   -1.6959450478
H        1.2128152046   -0.6846025768   -1.3818274380
H        1.7077780593    0.9375428909   -0.6705754757
H       -1.0661046121   -2.6893424229    1.6716684179
19   
Generated by ForceBalance from scan.xyz: Frame 11 of 24
C        0.5739396591    2.2076588893    3.2045505630
C        1.0897036467    1.5029875711    2.0616672578
C       -0.7518540889    1.8930668300    3.2741514463
C        0.0440859317    0.8017809599    1.5261771497
C       -0.6813515726   -1.3901712840    0.4221243183
C       -0.4137781863    0.6947808202   -1.0243669563
C        0.9465399847    0.1192460681   -0.7935328315
C       -0.1140750828   -0.0089377572    0.3028939297
O       -1.0069349504   -2.0879039645   -0.5228464555
O       -1.0958073118    1.0503367779    2.2537555030
O       -0.7720071864   -1.8187129635    1.7046725947
H        1.1185265738    2.8522812970    3.8817837997
H        2.1105024419    1.5017283097    1.7038339603
H       -1.5487817231    2.1598992362    3.9535286013
H       -0.5347466197    1.7709393190   -0.9626834710
H       -1.0810094538    0.1697745816   -1.6991607294
H        1.2041982293   -0.7975385320   -1.3118304762
H        1.7702057738    0.7952284469   -0.5930051550
H       -1.1385075194   -2.7226271693    1.6587143343
19   
Generated by ForceBalance from scan.xyz: Frame 12 of 24
C        0.5301747156    2.2798620905    3.1758757737
C        1.0366898588    1.6192631835    2.0033377228
C       -0.7328512688    1.7996529499    3.3631470160
C        0.0522749987    0.7714603719    1.5709815714
C       -0.7465634143   -1.3921330754    0.4535697936
C       -0.3451777596    0.6752433566   -0.9919416197
C        0.9757298802    0.0257251937   -0.7225671001
C       -0.1214597954   -0.0345660374    0.3449880709
O       -1.1599205662   -2.0390438086   -0.4931867144
O       -1.0467714056    0.8944742385    2.3874210782
O       -0.7669604571   -1.8707930662    1.7208772221
H        1.0421015720    3.0039794304    3.7958026074
H        2.0159151065    1.7455372407    1.5616928429
H       -1.4967501194    1.9731539324    4.1075055085
H       -0.4061872004    1.7567362295   -0.9365160706
H       -1.0224915953    0.1850195201   -1.6827207135
H        1.1961832562   -0.9067761803   -1.2299138078
H        1.8328737241    0.6526939287   -0.5038512714
H       -1.1722789500   -2.7573838004    1.6641209939
19   
Generated by ForceBalance from scan.xyz: Frame 13 of 24
C        0.4901939274    2.3425064289    3.1309897476
C        0.9648279873    1.7452021394    1.9127321691
C       -0.6798015021    1.7089183723    3.4314593110
C        0.0602819123    0.7746663273    1.5694656592
C       -0.8338299458   -1.3438759166    0.4224341091
C       -0.2563009902    0.6974625992   -1.0041802296
C        1.0073010510   -0.0424848961   -0.6897268835
C       -0.1324501085   -0.0219301691    0.3374920141
O       -1.3407891002   -1.9151813114   -0.5273918108
O       -0.9654420602    0.7656478600    2.4826775791
O       -0.7950130083   -1.8937623485    1.6596571266
H        0.9634651131    3.1275172828    3.7058877039
H        1.8721281798    1.9979197970    1.3805293721
H       -1.3861800829    1.7855067310    4.2454923589
H       -0.2448062762    1.7805280221   -0.9481528845
H       -0.9397484107    0.2553455135   -1.7209656000
H        1.1812594964   -0.9874899182   -1.1923802040
H        1.8998292093    0.5180128682   -0.4337352713
H       -1.2524330991   -2.7531152206    1.5829785749
19   
Generated by ForceBalance from scan.xyz: Frame 14 of 24
C        0.4241434090    2.3953325336    3.1033159495
C        0.8329828551    1.8858111201    1.8234794829
C       -0.5878254064    1.5850902134    3.5270366307
C        0.0538705044    0.7862186105    1.5691341881
C       -0.8979626262   -1.3106739123    0.3969721280
C       -0.1347956644    0.6813175307   -1.0088061415
C        1.0665833903   -0.1264491937   -0.6235580834
C       -0.1283786947   -0.0252517391    0.3415923738
O       -1.4598689326   -1.8126173207   -0.5611493452
O       -0.8351906503    0.6105220355    2.5971815492
O       -0.8438559290   -1.9235503092    1.6029722790
H        0.8354689234    3.2434452047    3.6346422918
H        1.6125639826    2.2845050366    1.1874860205
H       -1.1966656857    1.5466597181    4.4186434708
H       -0.0669433247    1.7628215057   -0.9633559545
H       -0.8030230653    0.2711122205   -1.7580386770
H        1.2147544161   -1.0834268190   -1.1124986339
H        1.9733507809    0.3807165144   -0.3108919796
H       -1.3450830117   -2.7553794208    1.5001011381
19   
Generated by ForceBalance from scan.xyz: Frame 15 of 24
C       -0.2319719718    2.3030717461    3.0045778344
C       -0.6844663084    1.8817167559    1.7072724519
C        0.6557385486    1.3553546230    3.4217081823
C       -0.0543811760    0.6946810068    1.4348614670
C        0.4817305033   -1.5407260405    0.2532017751
C       -0.9994148531    0.1436545636   -0.8953203978
C        0.3929071332    0.6278542068   -1.1105368266
C        0.0630806713   -0.1054425602    0.1938145582
O        0.9272461913   -2.1631963900   -0.6957069593
O        0.7889427237    0.3803030472    2.4706923233
O        0.2528383099   -2.1222626228    1.4544822812
H       -0.5366592506    3.1854044628    3.5517560336
H       -1.3968941020    2.3945284545    1.0748040227
H        1.2357879371    1.2148004757    4.3223335425
H       -1.7809184912    0.8534832356   -0.6466520926
H       -1.3261839420   -0.7282846988   -1.4515280395
H        1.0161415719    0.0871851387   -1.8147826177
H        0.5967935807    1.6872492515   -0.9992296253
H        0.5347332262   -3.0521252345    1.3565105572
19   
Generated by ForceBalance from scan.xyz: Frame 16 of 24
C       -0.2896558367    2.2508722716    3.0380026857
C       -0.8109850095    1.7679705090    1.7882117568
C        0.7564033707    1.4335996444    3.3517037644
C       -0.0561354560    0.6794564734    1.4385744056
C        0.3868028172   -1.5731477416    0.2764153361
C       -0.9469182616    0.1995485509   -0.9304412615
C        0.4815273470    0.5907468551   -1.0924820376
C        0.0484521817   -0.1178032617    0.1976654851
O        0.7511584223   -2.2470506717   -0.6718791509
O        0.9243263672    0.4843404255    2.3817128194
O        0.1960230361   -2.1020970050    1.5088461531
H       -0.6533930456    3.0849387224    3.6234513889
H       -1.6527846890    2.1711586411    1.2417187942
H        1.4387259778    1.3777860233    4.1877375366
H       -1.6859326644    0.9652661458   -0.7227956463
H       -1.3071356126   -0.6524249904   -1.4963949411
H        1.0955268745    0.0076665047   -1.7705095638
H        0.7479983413    1.6354193912   -0.9741116040
H        0.4244877656   -3.0482511244    1.4301741970
19   
Generated by ForceBalance from scan.xyz: Frame 17 of 24
C       -0.3503571483    2.2012372840    3.0738228727
C       -0.9037477056    1.6725490848    1.8561943322
C        0.8154349436    1.5242779334    3.2830436308
C       -0.0425259496    0.7024381913    1.4196134434
C        0.3120448341   -1.5643731138    0.2699773158
C       -0.8942815070    0.2811404792   -0.9756521652
C        0.5600540070    0.5842962986   -1.0959703301
C        0.0429056077   -0.0951730285    0.1796588565
O        0.5867891615   -2.2755200979   -0.6812354341
O        1.0271649479    0.6198993060    2.2796374337
O        0.1820525516   -2.0536913962    1.5269238661
H       -0.7694823507    2.9722029125    3.7068167852
H       -1.8340011780    1.9631109943    1.3870975488
H        1.5670264919    1.5512159426    4.0590458972
H       -1.5862571175    1.0953994804   -0.7926098674
H       -1.2887200995   -0.5485585892   -1.5516329394
H        1.1572665795   -0.0371843576   -1.7544589798
H        0.8854973963    1.6115509102   -0.9721122516
H        0.3638906331   -3.0107992890    1.4604964730
19   
Generated by ForceBalance from scan.xyz: Frame 18 of 24
C       -0.3993715647    2.1219539221    3.1186238018
C       -0.9732453042    1.5656056993    1.9228385608
C        0.8549364985    1.5934588831    3.2151691715
C       -0.0306687705    0.7341965531    1.3834285688
C        0.2316073106   -1.5391704136    0.2333076780
C       -0.8546098534    0.3750897594   -1.0323153324
C        0.6183358737    0.5917125661   -1.1192996114
C        0.0310268170   -0.0590396429    0.1405408915
O        0.4109532913   -2.2745160481   -0.7222306229
O        1.1020775195    0.7560616229    2.1629109413
O        0.1705196999   -2.0038611000    1.5051803112
H       -0.8605773295    2.8142636603    3.8105613222
H       -1.9649759622    1.7453034556    1.5298072139
H        1.6564972043    1.6979635035    3.9324325634
H       -1.4973637584    1.2308015340   -0.8584291990
H       -1.2840929758   -0.4280323890   -1.6207475726
H        1.1914975897   -0.0629960030   -1.7667161479
H        1.0023567968    1.5974859148   -0.9867629296
H        0.3061631481   -2.9689184802    1.4438120779
19   
Generated by ForceBalance from scan.xyz: Frame 19 of 24
C       -0.4487245749    2.0664310361    3.1716800986
C       -1.0327228940    1.4787924874    1.9962609647
C        0.8650829013    1.6965546226    3.1637887148
C       -0.0345739963    0.7939452191    1.3609098173
C        0.1468145123   -1.4931394072    0.2316617630
C       -0.8075921118    0.4676789225   -1.0794125246
C        0.6782218505    0.6006413802   -1.1202841876
C        0.0141586651   -0.0062869985    0.1223570203
O        0.2475774015   -2.2519629794   -0.7170033754
O        1.1383528410    0.9274548670    2.0669043691
O        0.1336511445   -1.9322647113    1.5143466094
H       -0.9399848893    2.6769280839    3.9178677284
H       -2.0630922891    1.5437275113    1.6723842039
H        1.6980697516    1.8858978310    3.8257855064
H       -1.4050066341    1.3595193889   -0.9252389912
H       -1.2623390227   -0.3141531123   -1.6775519030
H        1.2327314954   -0.0900820918   -1.7459829824
H        1.1159586101    1.5834688892   -0.9823796612
H        0.2262209079   -2.9031029799    1.4654605396
19   
Generated by ForceBalance from scan.xyz: Frame 20 of 24
C       -0.4739222639    1.9975270471    3.1930638131
C       -1.0676392889    1.3565416464    2.0515569449
C        0.8723089561    1.8030012485    3.0757706303
C       -0.0426043895    0.8228635727    1.3215678622
C        0.0722158538   -1.4824617848    0.2253839774
C       -0.7462118820    0.5028795331   -1.1470548922
C        0.7453307759    0.5626842918   -1.1283609791
C        0.0024230539    0.0070040915    0.0926278618
O        0.1094087947   -2.2612185127   -0.7117786310
O        1.1555090557    1.0922386003    1.9428280527
O        0.0915462928   -1.8988741083    1.5158426245
H       -0.9791827548    2.5288901937    3.9888579343
H       -2.1196755399    1.2913728321    1.8065125549
H        1.7237147962    2.0952630386    3.6738259225
H       -1.3048553730    1.4242177860   -1.0229635895
H       -1.2140694441   -0.2643921542   -1.7540116188
H        1.2891411127   -0.1627769513   -1.7231674049
H        1.2274763551    1.5235406311   -0.9844658145
H        0.1458509974   -2.8732158620    1.4809707916
19   
Generated by ForceBalance from scan.xyz: Frame 21 of 24
C       -0.4663574141    1.9371251015    3.2287995539
C       -1.0690930704    1.2145583719    2.1430295444
C        0.8763184244    1.9392791800    2.9800489299
C       -0.0546626294    0.8341845896    1.3095658527
C       -0.0184108722   -1.4823714067    0.2251333751
C       -0.6840174023    0.5314136513   -1.1894456318
C        0.8061050610    0.5157813764   -1.1057414776
C       -0.0131728031    0.0082448740    0.0858136389
O       -0.0197902726   -2.2648299182   -0.7099523829
O        1.1480413680    1.2715639166    1.8186410113
O       -0.0137021441   -1.8982464197    1.5161041332
H       -0.9634620333    2.3922410816    4.0753993398
H       -2.1196483614    0.9978300051    2.0000490518
H        1.7302617899    2.3571881378    3.4939249093
H       -1.2006291632    1.4799316308   -1.0898151549
H       -1.1646730519   -0.2162342214   -1.8108807470
H        1.3370947832   -0.2409588049   -1.6722651126
H        1.3317480582    1.4508531906   -0.9463787974
H       -0.0031100738   -2.8740527607    1.4801680089
19   
Generated by ForceBalance from scan.xyz: Frame 22 of 24
C       -0.4354732685    1.9139186104    3.2678716341
C       -1.0086985968    1.0629901938    2.2625370842
C        0.8465531177    2.1604217086    2.8681916121
C       -0.0388962558    0.8503639912    1.3230652214
C       -0.1030263327   -1.4463638964    0.1821677058
C       -0.5754795271    0.6326479790   -1.2109139299
C        0.9036896655    0.5219861884   -1.0614089335
C        0.0069899043    0.0428473611    0.0847569413
O       -0.1174239583   -2.1992559342   -0.7771229627
O        1.1088524721    1.5183757154    1.6891425092
O       -0.1817446235   -1.9033227988    1.4570784077
H       -0.9127593571    2.2911312957    4.1628293604
H       -2.0084813073    0.6499191097    2.2438221416
H        1.6592359387    2.7430679539    3.2778142243
H       -1.0373356240    1.6087071501   -1.1069833872
H       -1.0752213528   -0.0709789661   -1.8677975804
H        1.4112893886   -0.2570644762   -1.6189488047
H        1.4795705575    1.4180176466   -0.8598422656
H       -0.2345707230   -2.8757733797    1.3842102585
19   
Generated by ForceBalance from scan.xyz: Frame 23 of 24
C       -0.4027618641    1.8658702861    3.3044254455
C       -0.8735339585    0.8301559334    2.4266006712
C        0.7155278130    2.3826805677    2.7182850974
C       -0.0041546110    0.7801897392    1.3720211479
C       -0.2058790636   -1.4790283204    0.1585743863
C       -0.4826586480    0.6656016511   -1.1756648943
C        0.9791527399    0.4416882248   -1.0031616115
C        0.0357345396   -0.0053208165    0.1169727502
O       -0.1942271840   -2.2026222408   -0.8230682689
O        0.9752346922    1.7335425444    1.5403513197
O       -0.4539880128   -1.9634799259    1.4020345433
H       -0.8385031449    2.1798073036    4.2439370601
H       -1.7338605216    0.1911973176    2.5678012453
H        1.4106091686    3.1651321153    2.9866497145
H       -0.8746281272    1.6686561307   -1.0433397298
H       -1.0233087346    0.0216381057   -1.8608123223
H        1.4366997009   -0.3597985180   -1.5721777760
H        1.6142641224    1.2881217908   -0.7706245475
H       -0.5875004177   -2.9239570887    1.2851056672
19   
Generated by ForceBalance from scan.xyz: Frame 24 of 24
C       -0.3528447459    1.8682930118    3.3579899004
C       -0.7150673179    0.7298889200    2.5574387002
C        0.5764946844    2.5610379505    2.6408869762
C        0.0284809253    0.8015640291    1.4108275653
C       -0.2589213265   -1.4274121630    0.1487030498
C       -0.3574526128    0.7541589352   -1.1488085371
C        1.0797981200    0.4330994493   -0.9343913984
C        0.0704281987    0.0280195517    0.1478283837
O       -0.2678829337   -2.1260685061   -0.8506957851
O        0.8226509123    1.9260134535    1.4506234114
O       -0.5575657903   -1.9319694147    1.3735954759
H       -0.7339422889    2.1296222260    4.3365608895
H       -1.4206359351   -0.0483654654    2.8065456508
H        1.1420120259    3.4647318229    2.8162911173
H       -0.6853465626    1.7788248130   -1.0086700636
H       -0.9166731184    0.1593821274   -1.8627779926
H        1.5032686011   -0.3873211725   -1.5028254524
H        1.7575962003    1.2342854449   -0.6652251893
H       -0.7431190065   -2.8796246664    1.2259195957
