74

C      3.45296   -2.95943   -3.43125
C      3.57837   -3.11731   -2.04587
C      2.72482   -1.87640   -3.93435
C     -4.58497  -17.39272   -0.26814
C     -5.97305  -17.51596   -0.37081
C      2.97505   -2.20878   -1.17617
C      2.12968   -0.96249   -3.06073
C      0.46694   -2.49387    1.83795
C     -0.16692   -2.68641   -0.47199
C     -0.89720    0.50197    1.81666
C      0.05832   -3.80263    2.06741
C     -0.59082   -4.00073   -0.25820
C     -1.33301    1.44382    2.74786
C     -3.99895  -16.16546   -0.57425
C      0.89752    2.38887    2.78834
C     -6.70689  -16.39891   -0.77841
C      0.38159   -1.91135    0.55839
C      2.23206   -1.11884   -1.66684
C      0.42213    0.49296    1.33833
C      1.33428    1.44929    1.85169
C     -0.47053   -4.57005    1.01716
C     -0.42865    2.39595    3.23264
C     -4.82183  -15.09971   -0.97137
C      0.84597   -0.51727    0.33199
C      1.60416   -0.14561   -0.73673
C      2.78011    1.43009    1.41073
C      1.88768    1.32633   -0.97864
C      2.98280    1.88642   -0.04871
C     -4.24240  -13.74939   -1.28883
C     -2.20688   -9.02897   -0.13768
C     -1.66487   -8.04367    0.90389
C     -2.52373  -10.40246    0.46776
C     -1.36251   -6.68066    0.29910
C     -3.05420  -11.38226   -0.57640
N     -6.15534  -15.21388   -1.07301
O     -4.67368  -12.63772    1.17088
O     -0.78306    3.35305    4.15451
O     -0.84487   -5.84745    1.33821
S     -3.52048  -12.97015    0.24345
H      3.92122   -3.66820   -4.10952
H      4.15006   -3.94954   -1.64240
H      2.61888   -1.74292   -5.00826
H     -3.97286  -18.23460    0.04492
H     -6.47771  -18.45013   -0.14189
H      3.07206   -2.34116   -0.10294
H      1.55617   -0.13286   -3.46668
H      0.86837   -1.91004    2.66196
H     -0.26320   -2.25812   -1.46475
H     -1.59668   -0.24272    1.44757
H      0.13799   -4.25296    3.05275
H     -1.01016   -4.56125   -1.08593
H     -2.36504    1.43536    3.09559
H     -2.92319  -16.02768   -0.50067
H      1.58602    3.12392    3.19691
H     -7.79028  -16.45556   -0.87201
H      3.38436    2.05006    2.08017
H      3.15346    0.40380    1.50177
H      2.18800    1.49030   -2.01704
H      0.96958    1.89990   -0.81294
H      2.96389    2.98126   -0.11031
H      3.97399    1.56095   -0.38555
H     -3.42263  -13.81471   -2.01228
H     -5.02892  -13.08730   -1.65688
H     -3.11705   -8.61865   -0.59492
H     -1.47677   -9.14397   -0.95042
H     -2.38992   -7.91844    1.71604
H     -0.74761   -8.43936    1.35519
H     -1.62087  -10.81442    0.93605
H     -3.27215  -10.29453    1.25993
H     -2.27380   -6.23242   -0.12083
H     -0.62331   -6.77000   -0.50928
H     -3.96037  -10.99714   -1.05633
H     -2.30452  -11.60934   -1.34329
H     -1.72075    3.24190    4.37781
