69

C     -1.40130    3.08662   -1.03764
C     -0.39457    3.58541   -0.19093
C     -1.53393    1.71456   -1.20298
C      0.45807    2.72269    0.49225
C     -0.67307    0.82536   -0.53266
C      0.31472    1.33853    0.32768
C     -0.76653   -0.62733   -0.76144
C      0.39105   -1.47442   -0.17975
C      0.78630   -0.86195    1.20543
C     -0.38923   -0.89529    2.19949
C      3.31133   -2.90970    6.18688
C      5.65166    0.83614    3.81517
C      2.16427   -3.66091   -4.61989
C     -1.10857   -6.01834   -0.28556
C      1.55742   -1.32323   -1.19869
C     -0.10238   -2.93987   -0.08007
C      2.03990   -1.50071    1.82247
C      2.46651   -0.92056    3.17621
C      3.56334   -1.40689    6.05643
C      4.69064    0.39244    4.91886
C      3.82572   -1.50435    3.60883
C      1.24171   -1.89192   -2.58991
C      0.95839   -4.04990   -0.01443
N      4.36711   -1.03831    4.88690
O     -1.65642   -1.12806   -1.44252
O      3.56766   -1.50091   -3.88963
O      3.36870   -3.45388   -2.26026
O      0.19441   -5.04001   -2.37724
O      1.44708   -6.57694   -0.76123
O      1.17310    0.53516    1.00751
S      2.76838   -2.59120   -3.30197
S      0.47251   -5.50337   -0.99872
H     -2.06317    3.77058   -1.56051
H     -0.28171    4.65847   -0.05937
H     -2.29005    1.29262   -1.85832
H      1.23131    3.09490    1.15758
H     -0.19546   -0.19335    3.01227
H     -0.49933   -1.89094    2.63663
H     -1.34114   -0.62115    1.73841
H      2.61907   -3.28596    5.42690
H      4.24988   -3.46667    6.10138
H      2.86933   -3.12673    7.16491
H      6.53053    0.18416    3.78377
H      5.18464    0.83183    2.82553
H      5.98922    1.85936    4.01030
H      3.05316   -4.09142   -5.08497
H      1.53799   -4.43369   -4.17218
H      1.61626   -3.05190   -5.34134
H     -1.41813   -6.89651   -0.85524
H     -0.95331   -6.28291    0.76176
H     -1.84084   -5.21823   -0.39670
H      2.43226   -1.83720   -0.80144
H      1.83958   -0.27326   -1.28640
H     -0.73105   -3.09366   -0.95824
H     -0.77997   -3.03256    0.77123
H      1.86567   -2.57489    1.93288
H      2.87182   -1.38666    1.12235
H      2.53234    0.16848    3.09817
H      1.71335   -1.14178    3.93946
H      4.11944   -1.07026    6.93908
H      2.59527   -0.87021    6.08431
H      3.78289    1.02526    4.88872
H      5.16156    0.58594    5.88969
H      4.56727   -1.29433    2.83219
H      3.75289   -2.59598    3.65064
H      0.53597   -2.72204   -2.56782
H      0.87925   -1.13413   -3.28687
H      1.92116   -3.79368   -0.46352
H      1.14425   -4.42935    0.99260
