52

C     -1.40217    1.90578    0.29019
C     -1.66549    0.70032   -0.39239
C     -3.61444    4.44914    5.18853
C     -1.96354    2.16460    1.54225
C     -3.55824    3.50566    4.15690
C     -2.73813   -3.30848    3.50616
C     -2.71890   -3.99568    1.18929
C     -2.49103   -0.27419    0.17503
C     -3.68366    4.05419    6.52525
C     -1.75117   -4.25305    3.79535
C     -1.73207   -4.95172    1.46232
C     -3.60741    1.73344    5.80606
C     -2.81298    1.20974    2.13227
C     -3.55605    2.12981    4.45532
C     -3.50950    1.10965    3.39757
C     -3.23154   -3.17195    2.19688
C     -3.05769   -0.00536    1.42436
C     -3.69434    2.68248    6.82544
C     -1.26835   -5.05731    2.76676
C     -4.14401   -0.13101    3.41092
C     -5.03098   -0.83550    4.44765
C     -4.81626   -0.45788   10.42000
C     -5.55514    0.86555   10.43990
C     -4.13084    0.80298    9.93806
C     -4.30281   -2.14032    1.88918
C     -3.86034    0.94749    8.46621
N     -3.88876   -0.78303    2.20954
O     -4.44227   -1.19239    5.50953
O     -6.21633   -1.03211    4.08773
O     -3.79553    2.34853    8.15664
F     -0.30300   -5.98526    3.04918
H     -0.74098    2.64165   -0.16290
H     -1.21098    0.51905   -1.36382
H     -3.62375    5.51021    4.94565
H     -1.72562    3.08700    2.06374
H     -3.56239    3.83544    3.12288
H     -3.12720   -2.67592    4.30274
H     -3.08887   -3.89274    0.17102
H     -2.66977   -1.21630   -0.33596
H     -3.74475    4.77754    7.33404
H     -1.36053   -4.37046    4.80203
H     -1.32456   -5.59434    0.68729
H     -3.60462    0.67127    6.01650
H     -4.49603   -0.88374   11.36711
H     -5.10571   -1.18898    9.67010
H     -6.33537    1.02116    9.70017
H     -5.74033    1.33785   11.40095
H     -3.36768    1.22405   10.58922
H     -4.56650   -2.18001    0.82729
H     -5.21306   -2.33568    2.46083
H     -4.64937    0.46248    7.87999
H     -2.91056    0.46749    8.19502
