25

C      1.84877   -1.34130    0.00296
C      0.76497   -0.72984    0.63370
C      1.72242   -1.29868    2.77176
C      2.81273   -1.90164    2.12383
C      2.90039   -1.93527    0.71526
C      0.70140   -0.70278    2.03049
C      3.90368   -2.46518    2.99093
C      5.08651   -1.47203   -0.43257
C      3.63558   -3.39008   -1.24709
C      4.07363   -2.56017   -0.02831
O      5.08917   -2.29314    2.81389
O     -0.32535   -0.11288    2.72517
O      3.47825   -3.20306    4.06069
H      1.87069   -1.35293   -1.08234
H     -0.02560   -0.27482    0.03885
H      1.67401   -1.23447    3.85566
H      4.62800   -0.74739   -1.11584
H      5.94684   -1.92072   -0.94158
H      5.44958   -0.93840    0.44898
H      3.22475   -2.76641   -2.04828
H      2.87972   -4.13464   -0.97592
H      4.49928   -3.91886   -1.66353
H      4.58816   -3.23653    0.65694
H     -0.94773    0.28753    2.09755
H      2.51650   -3.33549    3.99888
