19   

C        1.7384419634   -1.2550413479   -0.1122797117
C        0.7594317474   -0.5075775295    0.5303299424
C        2.7566132520   -1.8501374069    0.6347322498
C        0.8073010317   -0.3576060875    1.9153937816
C        2.8280617124   -1.7222434619    2.0404848157
C        1.8262642399   -0.9506732063    2.6864757229
C        3.9374114945   -2.3782579180    2.7466363214
C        1.8205881969   -0.7129792288    4.1780480113
N        4.0768571308   -2.6267519357    4.0910981820
N        5.0301618460   -2.8515689983    2.1031537344
N        5.2770297852   -3.2535563407    4.2090870209
N        5.8283601074   -3.3841371720    3.0607114975
H        1.7153431307   -1.3773121071   -1.1884326365
H       -0.0339060552   -0.0418626944   -0.0418556766
H        3.5107555805   -2.4302256229    0.1154791210
H        0.0396935991    0.2333955778    2.3998319199
H        1.6340957057   -1.6524087350    4.7071424681
H        2.7825630256   -0.3020116532    4.4992558747
H        1.0397016029   -0.0015162361    4.4605778894
19   

C        1.7129374695   -1.2940505034   -0.1207866990
C        0.7450747305   -0.5273953647    0.5192876217
C        2.7303750131   -1.8896769431    0.6275689508
C        0.8041278788   -0.3562383654    1.9025891927
C        2.8048605819   -1.7452875433    2.0284876693
C        1.8220583411   -0.9504426122    2.6730367226
C        3.9194818294   -2.3869559898    2.7407815494
C        1.8515888532   -0.6869226150    4.1595308128
N        3.9559085671   -2.8265543479    4.0413762422
N        5.1183903895   -2.6198858990    2.1598426355
N        5.2106010507   -3.3260490440    4.1994006178
N        5.8819064719   -3.2075950577    3.1139400431
H        1.6822553499   -1.4285952744   -1.1952684272
H       -0.0467380321   -0.0606990259   -0.0541979151
H        3.4837829238   -2.4827233676    0.1216210040
H        0.0492485384    0.2523801414    2.3852102877
H        1.5998735335   -1.6006484444    4.7063002203
H        2.8469645780   -0.3497436559    4.4649109923
H        1.1321411647    0.0891074089    4.4351947595
19   

C        1.7018343654   -1.3117164784   -0.1259327419
C        0.7477904012   -0.5265566875    0.5158737979
C        2.7149296399   -1.9180840363    0.6206142952
C        0.8167249495   -0.3454998103    1.8986290337
C        2.7904109276   -1.7678567995    2.0176848014
C        1.8298562457   -0.9513841609    2.6651502867
C        3.9059646115   -2.4037067755    2.7384499902
C        1.8880639994   -0.6855884442    4.1499699519
N        3.8595509944   -3.0319565763    3.9574609150
N        5.1751592333   -2.4030973753    2.2762030273
N        5.1448365600   -3.4126227428    4.1879984978
N        5.9038012495   -3.0508678494    3.2191041892
H        1.6642329035   -1.4500068612   -1.1997019825
H       -0.0398453476   -0.0514253762   -0.0564300200
H        3.4660188841   -2.5214532262    0.1234472059
H        0.0758343628    0.2788182321    2.3828577235
H        1.6063228925   -1.5875488112    4.7015675631
H        2.9012673977   -0.3930999063    4.4430190151
H        1.2053196210    0.1210850612    4.4309541762
19   

C        2.0351235975   -0.7401683070   -0.1290702009
C        0.8618364764   -0.3414556025    0.5086925484
C        3.0419896102   -1.3722511058    0.6053525324
C        0.7042672266   -0.5687559745    1.8782659875
C        2.8906584990   -1.6312339081    1.9777833104
C        1.7084956498   -1.2058518280    2.6301188222
C        4.0016554027   -2.2597225452    2.7199436545
C        1.5218274421   -1.3995209355    4.1151247293
N        3.9284516639   -3.3778795114    3.5095857599
N        5.2484913278   -1.7466455279    2.7605333720
N        5.1890850401   -3.5175140565    4.0017986183
N        5.9503453438   -2.5783840835    3.5703876646
H        2.1711255579   -0.5573963428   -1.1881221026
H        0.0778404890    0.1508058853   -0.0540454043
H        3.9642011544   -1.6737418512    0.1220344143
H       -0.2069292437   -0.2420388842    2.3641817630
H        1.4039637543   -2.4637368000    4.3403837109
H        2.3936060050   -1.0199538996    4.6574388765
H        0.6355658640   -0.8675134086    4.4718894863
19   

C        2.0221875961   -0.7555440532   -0.1439809525
C        0.8571549929   -0.3442241130    0.5031948952
C        3.0361781029   -1.3821494189    0.5861167939
C        0.7126172887   -0.5554261051    1.8775284787
C        2.8974648847   -1.6165616502    1.9627401206
C        1.7241320840   -1.1859711032    2.6243539574
C        4.0014419009   -2.2501989891    2.7188404210
C        1.5569965979   -1.3824692132    4.1109952113
N        3.9850476385   -3.5049568793    3.2674381424
N        5.1577401764   -1.6256035124    3.0155042546
N        5.1913642091   -3.6052152844    3.8890184198
N        5.8677261074   -2.5234304751    3.7438177320
H        2.1449955121   -0.5878197331   -1.2071170877
H        0.0681204548    0.1430899789   -0.0568004898
H        3.9509610176   -1.6973028794    0.0979202323
H       -0.1932803226   -0.2234066551    2.3696999210
H        1.5105353393   -2.4509611480    4.3426969847
H        2.4068702296   -0.9457203605    4.6450094697
H        0.6400935473   -0.9066698844    4.4696799978
19   

C        2.0190236271   -0.7821085876   -0.1503747061
C        0.8616004708   -0.3513085050    0.4987480282
C        3.0362864649   -1.3995794096    0.5832681805
C        0.7250747511   -0.5389364557    1.8776323976
C        2.9114550334   -1.5936233301    1.9668733952
C        1.7406401997   -1.1585090924    2.6278390218
C        4.0006464738   -2.2497473894    2.7296371082
C        1.5774294964   -1.3534899197    4.1148718740
N        4.1205631910   -3.5935134709    2.9593415031
N        5.0230584174   -1.5822189202    3.2959847654
N        5.2605922180   -3.6960030664    3.6954743465
N        5.7815365598   -2.5381362445    3.8890092085
H        2.1316802986   -0.6397119794   -1.2183143532
H        0.0699054560    0.1279791618   -0.0644092267
H        3.9412335488   -1.7389559425    0.0931157171
H       -0.1783066256   -0.1998976341    2.3696316221
H        1.6283280186   -2.4191860184    4.3592032079
H        2.3792071218   -0.8344593033    4.6494399283
H        0.6167329829   -0.9613986141    4.4599611311
19   

C        2.0163712589   -0.8108402387   -0.1449796246
C        0.8673359093   -0.3530580485    0.4994143741
C        3.0318689831   -1.4191449601    0.5983519142
C        0.7356728164   -0.5102953664    1.8821654446
C        2.9214957066   -1.5676318704    1.9894390053
C        1.7504629420   -1.1195608555    2.6421232130
C        3.9981609506   -2.2489430616    2.7439291312
C        1.5785551296   -1.2985963921    4.1302988897
N        4.3251693304   -3.5743982870    2.6467154655
N        4.8598830434   -1.6116876866    3.5592653039
N        5.3993440897   -3.7055195130    3.4719408710
N        5.7085473183   -2.5752188202    3.9973243365
H        2.1227909293   -0.6998199925   -1.2172763529
H        0.0763302909    0.1186889037   -0.0710279994
H        3.9260882689   -1.7881769954    0.1095596978
H       -0.1651281132   -0.1578918738    2.3694875055
H        1.6973147417   -2.3535357562    4.3968844235
H        2.3342942880   -0.7155601402    4.6655918673
H        0.5879852223   -0.9674687393    4.4542087992
19   

C        2.0175069817   -0.8413084388   -0.1367630439
C        0.8753797731   -0.3520774597    0.4944407368
C        3.0183261366   -1.4550978943    0.6210968642
C        0.7357359881   -0.4860024390    1.8781323190
C        2.9062723215   -1.5765858363    2.0161713816
C        1.7362815276   -1.0996010505    2.6540212287
C        3.9688229597   -2.2750414679    2.7657164490
C        1.5354310349   -1.2620492221    4.1409850609
N        4.4900016874   -3.5007435949    2.4457733752
N        4.6573535591   -1.7310448502    3.7899223344
N        5.4855353246   -3.6818648565    3.3555809549
N        5.5829152319   -2.6625651646    4.1300399074
H        2.1299119918   -0.7518101890   -1.2104690562
H        0.0948997183    0.1237923390   -0.0869727699
H        3.9051183545   -1.8501789297    0.1386842421
H       -0.1623681049   -0.1125175559    2.3546381073
H        1.7153041910   -2.3009543679    4.4348352690
H        2.2334897757   -0.6175772099    4.6837941325
H        0.5158020862   -0.9934343159    4.4308161157
19   

C        2.0025708749   -0.8660269169   -0.1323673962
C        0.8738741191   -0.3555364789    0.5031942504
C        3.0008121031   -1.4860357921    0.6228235286
C        0.7458313235   -0.4750244894    1.8884451242
C        2.9027742339   -1.5971760763    2.0219132325
C        1.7436361935   -1.0946941457    2.6641849726
C        3.9744814546   -2.2924191061    2.7533898635
C        1.5306939594   -1.2423376633    4.1517186888
N        4.6643416095   -3.3832874737    2.2900901469
N        4.5039126765   -1.8806023832    3.9255309946
N        5.5928172918   -3.6244050361    3.2548026552
N        5.5011104797   -2.7587271187    4.1976010680
H        2.1076825000   -0.7874999911   -1.2076823053
H        0.0947197482    0.1255823217   -0.0756794461
H        3.8774689558   -1.8923320291    0.1310531750
H       -0.1438375993   -0.0850983657    2.3676372188
H        1.7380366700   -2.2704813222    4.4645308325
H        2.1985289261   -0.5655263071    4.6931171456
H        0.4990737067   -1.0043589028    4.4254465294
19   

C        1.9927541986   -0.8803941084   -0.1334587943
C        0.8745741809   -0.3541665039    0.5043404675
C        2.9882869390   -1.5052167490    0.6201946005
C        0.7558317679   -0.4622172709    1.8902885033
C        2.8998683855   -1.6129742853    2.0227449082
C        1.7500598044   -1.0878931681    2.6673893615
C        3.9847233421   -2.2993167802    2.7395063757
C        1.5247641794   -1.2126900351    4.1559626441
N        4.8246099526   -3.2320817832    2.1830945020
N        4.3631397251   -2.0580804643    4.0145574999
N        5.6888220619   -3.5494278089    3.1842029111
N        5.4233101827   -2.8728044014    4.2407263303
H        2.0933520655   -0.8090224154   -1.2097183763
H        0.0969190085    0.1315022386   -0.0727598043
H        3.8569668846   -1.9160041092    0.1182234981
H       -0.1268625110   -0.0574012862    2.3700609444
H        1.6891400371   -2.2450851075    4.4797199721
H        2.2115205105   -0.5532808215    4.6951988663
H        0.5012942841   -0.9350589129    4.4227857203
19   

C        1.9751747399   -0.9092802110   -0.1273219391
C        0.8636844896   -0.3743235010    0.5117936403
C        2.9736800704   -1.5284505616    0.6260393698
C        0.7566937876   -0.4661701456    1.8989347641
C        2.8958956685   -1.6285105727    2.0320643820
C        1.7533187832   -1.0870386955    2.6784127058
C        3.9953571539   -2.2994207211    2.7397823891
C        1.5301765180   -1.1696103702    4.1709820727
N        4.9751440824   -3.0481038543    2.1329050285
N        4.2340750000   -2.2555283306    4.0704810047
N        5.7819486378   -3.4490449814    3.1512460957
N        5.3548317455   -2.9920371039    4.2697954650
H        2.0695463597   -0.8480692918   -1.2047828828
H        0.0833291171    0.1079013838   -0.0645637336
H        3.8359975376   -1.9406250176    0.1146513784
H       -0.1205828213   -0.0495327673    2.3785227175
H        1.6103581219   -2.2070788239    4.5096075949
H        2.2692228020   -0.5571747995    4.6963503206
H        0.5349257802   -0.8061577563    4.4413100208
19   

C        1.9490654860   -0.9392298100   -0.1206441941
C        0.8401434223   -0.4037150386    0.5211323254
C        2.9563331526   -1.5452180647    0.6313393264
C        0.7468496821   -0.4782175867    1.9099013677
C        2.8896277786   -1.6356760368    2.0395685775
C        1.7523652063   -1.0857150915    2.6891941157
C        4.0006950205   -2.2926900077    2.7421174567
C        1.5537867255   -1.1137793933    4.1875480526
N        5.1070252535   -2.8291813334    2.1268050591
N        4.1128394592   -2.4722962588    4.0784265762
N        5.8625817478   -3.3241668298    3.1428340772
N        5.2891787685   -3.1184640610    4.2699205058
H        2.0350261490   -0.8885764993   -1.1993624232
H        0.0529188295    0.0687631906   -0.0539591254
H        3.8146632340   -1.9578496850    0.1138339574
H       -0.1260297692   -0.0545750582    2.3913616465
H        1.5254242777   -2.1473227312    4.5457395117
H        2.3655820215   -0.5758853969    4.6865221954
H        0.6119172834   -0.6355366285    4.4700802222
19   

C        1.9397290522   -0.9759630594   -0.1335139262
C        0.8298277794   -0.4379795304    0.5058232800
C        2.9529088549   -1.5676193701    0.6223610871
C        0.7431597285   -0.4916919742    1.8963802889
C        2.8879203361   -1.6436113369    2.0305377487
C        1.7547527206   -1.0844898192    2.6784273693
C        4.0035603975   -2.2841938382    2.7410324163
C        1.5877687738   -1.0618279217    4.1804203853
N        5.2141962881   -2.6012214554    2.1730064227
N        4.0017280163   -2.6898776219    4.0314136977
N        5.9202590724   -3.1903402537    3.1745676590
N        5.2211477667   -3.2418017744    4.2474333617
H        2.0217085381   -0.9380216280   -1.2130575161
H        0.0384615505    0.0236013833   -0.0724206688
H        3.8127860031   -1.9844142759    0.1106087217
H       -0.1263948391   -0.0605668621    2.3772249841
H        1.4549220714   -2.0795935934    4.5596095040
H        2.4648992988   -0.6090687276    4.6527414490
H        0.7120152937   -0.4748977711    4.4707098976
19   

C        1.9090915724   -1.0029488368   -0.1125711624
C        0.8082647890   -0.4509584317    0.5335650699
C        2.9278874862   -1.5921168843    0.6387086641
C        0.7366043953   -0.4855532179    1.9265008284
C        2.8717613131   -1.6541421603    2.0457227526
C        1.7538471665   -1.0763453883    2.7011190506
C        3.9940132613   -2.2776808864    2.7619233294
C        1.6297405121   -1.0282858948    4.2059243037
N        5.2713319804   -2.3887778414    2.2706952567
N        3.9187161950   -2.8978611801    3.9607069138
N        5.9471557729   -3.0694216894    3.2349154293
N        5.1677585728   -3.3633119814    4.2099156446
H        1.9798370714   -0.9761962513   -1.1932317228
H        0.0136623626    0.0090271763   -0.0414898342
H        3.7852116073   -2.0187879395    0.1305042828
H       -0.1220249000   -0.0408617794    2.4145678990
H        1.4306186508   -2.0304230004    4.5974562813
H        2.5533201388   -0.6454588085    4.6510358514
H        0.8108684453   -0.3711962447    4.5116078537
19   

C        1.9022676218   -1.0184997312   -0.1187446343
C        0.8082541962   -0.4504653349    0.5285269452
C        2.9191409055   -1.6121579371    0.6327588320
C        0.7410877952   -0.4719040780    1.9230179147
C        2.8608232298   -1.6648955661    2.0374840594
C        1.7560233698   -1.0682433815    2.6948031379
C        3.9825596008   -2.2750299477    2.7698264874
C        1.6579629293   -1.0183133216    4.2007196777
N        5.3014610122   -2.1880987078    2.4044585307
N        3.8556228128   -3.0999417212    3.8315526837
N        5.9514449566   -2.9592032860    3.3175824593
N        5.1188726651   -3.4851777965    4.1402928745
H        1.9693742290   -0.9988420755   -1.1997749180
H        0.0161698420    0.0129696299   -0.0472186260
H        3.7768490019   -2.0482494823    0.1331558962
H       -0.1094295545   -0.0143701959    2.4133870101
H        1.4310305867   -2.0142339226    4.5929388538
H        2.6036227367   -0.6745667432    4.6314017813
H        0.8688372294   -0.3316780524    4.5194904685
19   

C        1.8963104019   -1.0356748260   -0.1187592569
C        0.8151779007   -0.4424169122    0.5304090770
C        2.9077493835   -1.6406420119    0.6320697819
C        0.7545543387   -0.4496902606    1.9262253036
C        2.8512657270   -1.6791376454    2.0352382057
C        1.7644236525   -1.0571433436    2.6948285437
C        3.9675159454   -2.2887608050    2.7842942818
C        1.6866159320   -1.0128058667    4.2014027184
N        5.2953449405   -2.0127009630    2.5919294481
N        3.8267416922   -3.2988994247    3.6668802680
N        5.9342250146   -2.8689926009    3.4346871552
N        5.0888838928   -3.6106657899    4.0540052375
H        1.9575471460   -1.0256276202   -1.2002573965
H        0.0280649081    0.0294997258   -0.0452563473
H        3.7592570974   -2.0941920821    0.1376632593
H       -0.0849052978    0.0256796538    2.4186398197
H        1.4991721736   -2.0166341196    4.5944254952
H        2.6291040015   -0.6429672949    4.6172954920
H        0.8807200603   -0.3523979963    4.5333579854
19   

C        1.8704606206   -1.0546424686   -0.1293045964
C        0.8092873205   -0.4414292358    0.5362563512
C        2.8870049136   -1.6701147903    0.6066597228
C        0.7716087421   -0.4409002843    1.9336252058
C        2.8533038840   -1.6931356259    2.0094025463
C        1.7874170653   -1.0575900166    2.6861989474
C        3.9635459484   -2.3212377786    2.7613959464
C        1.7382438665   -1.0266826308    4.1938129519
N        5.2507584192   -1.8596218917    2.8180610425
N        3.8569347220   -3.4949659592    3.4128803299
N        5.8984915801   -2.7939876876    3.5660209147
N        5.0965192580   -3.7367921502    3.9083289185
H        1.9111252670   -1.0527083869   -1.2118078832
H        0.0186043157    0.0379111385   -0.0282726742
H        3.7225636640   -2.1421928131    0.1029588515
H       -0.0537100804    0.0458544302    2.4386319961
H        1.6372746722   -2.0439779493    4.5843598167
H        2.6605353327   -0.5900796374    4.5898237212
H        0.8918992097   -0.4312887342    4.5473645312
19   

C        1.8482178083   -1.0720760693   -0.1390923832
C        0.8045628096   -0.4377977559    0.5354729267
C        2.8740286091   -1.6827019412    0.5883561845
C        0.7898098012   -0.4160938257    1.9334916487
C        2.8707783298   -1.6678791825    1.9909939390
C        1.8153108104   -1.0264682970    2.6776962954
C        3.9666648118   -2.3211818288    2.7465600194
C        1.7844162847   -0.9938501092    4.1856395712
N        5.1318352047   -1.7238200054    3.1445449127
N        3.9413501959   -3.6094885617    3.1355332295
N        5.7986986858   -2.7156630084    3.7953892387
N        5.1141466828   -3.8023299576    3.7898293444
H        1.8659193188   -1.0930277379   -1.2220100251
H        0.0067258936    0.0370228997   -0.0227801898
H        3.6909461725   -2.1796559787    0.0784171343
H       -0.0260809609    0.0795017417    2.4451711984
H        1.7628746672   -2.0144282044    4.5805587433
H        2.6792122895   -0.4914278067    4.5663058613
H        0.9023004163   -0.4598446692    4.5496036790
19   

C        1.8273475040   -1.0902458749   -0.1360750770
C        0.7957997909   -0.4386858534    0.5397304789
C        2.8592003987   -1.6925847501    0.5894060646
C        0.7965116979   -0.3966444909    1.9370608219
C        2.8822410815   -1.6431000673    1.9916497692
C        1.8291141332   -0.9971011061    2.6798095479
C        3.9681802901   -2.3195676378    2.7367815640
C        1.7974202448   -0.9600216732    4.1878764791
N        4.9622058066   -1.7022724395    3.4484600209
N        4.0708075598   -3.6576991052    2.8548130915
N        5.6715667039   -2.7342688703    3.9808247501
N        5.1592158191   -3.8609273950    3.6388321981
H        1.8292914050   -1.1342042558   -1.2184500226
H       -0.0074482406    0.0290429084   -0.0167474406
H        3.6613444593   -2.2111800329    0.0774406957
H       -0.0149401465    0.1049330445    2.4499798584
H        1.8703196857   -1.9756076785    4.5897199202
H        2.6416416496   -0.3740588275    4.5639837642
H        0.8695630542   -0.5090888272    4.5504950015
19   

C        1.8159269881   -1.1052480601   -0.1279673294
C        0.7917548200   -0.4378133409    0.5412708596
C        2.8469706261   -1.7016493785    0.6027870958
C        0.7987715388   -0.3770216213    1.9371161755
C        2.8835714748   -1.6292174262    2.0052937515
C        1.8315385312   -0.9706701225    2.6858215172
C        3.9687841710   -2.3149232206    2.7343806191
C        1.7861101333   -0.9205072063    4.1934921348
N        4.8011307066   -1.7586530196    3.6708811182
N        4.2317044670   -3.6320631096    2.6076443522
N        5.5817075933   -2.7962893835    4.0770244135
N        5.2546201083   -3.8758808439    3.4646251357
H        1.8125783310   -1.1677809235   -1.2094331944
H       -0.0118146078    0.0252290034   -0.0186545777
H        3.6408062816   -2.2352566551    0.0928353568
H       -0.0100888090    0.1333516504    2.4454581289
H        1.9299210148   -1.9228632977    4.6091803399
H        2.5799934063   -0.2675576200    4.5684927663
H        0.8239602707   -0.5372149867    4.5444003214
19   

C        1.8115600516   -1.1220722369   -0.1177542760
C        0.7970170059   -0.4336636556    0.5421012069
C        2.8336651062   -1.7232023088    0.6206990266
C        0.8056140993   -0.3571096799    1.9362439471
C        2.8746337864   -1.6393703907    2.0247449221
C        1.8294205531   -0.9554532675    2.6944537541
C        3.9599924878   -2.3277345958    2.7434725150
C        1.7671404817   -0.8845849771    4.2010434812
N        4.6510348505   -1.8762607974    3.8395696576
N        4.3910727088   -3.5643991358    2.4127319845
N        5.5133503772   -2.8866434697    4.1321142352
N        5.3644302817   -3.8599793014    3.3098409474
H        1.8087924969   -1.1969838590   -1.1984480511
H       -0.0001397903    0.0335443617   -0.0235028114
H        3.6197032700   -2.2692882593    0.1114845427
H        0.0028135618    0.1701043683    2.4369686927
H        1.9144261866   -1.8792314377    4.6334712382
H        2.5484327824   -0.2163691279    4.5755286761
H        0.7970364121   -0.5071047206    4.5360393003
19   

C        1.8008122108   -1.1430730981   -0.1135878095
C        0.7982317864   -0.4343595928    0.5396753204
C        2.8149769523   -1.7510607949    0.6292617932
C        0.8127669178   -0.3431516873    1.9317024851
C        2.8618877488   -1.6617753798    2.0359765664
C        1.8281938520   -0.9488275322    2.6964931493
C        3.9514987207   -2.3480409588    2.7456013570
C        1.7580302790   -0.8482805458    4.2014574203
N        4.5098278038   -2.0275471414    3.9587107049
N        4.5575342931   -3.4537549456    2.2563246309
N        5.4619607749   -2.9772192561    4.1594642975
N        5.4904297501   -3.8003373630    3.1773273604
H        1.7967794450   -1.2272939625   -1.1936086433
H        0.0070288575    0.0389941942   -0.0291777044
H        3.5911288234   -2.3052202747    0.1136990421
H        0.0192398136    0.2032782937    2.4265878334
H        1.8565561142   -1.8405709832    4.6524324179
H        2.5627102564   -0.2056495604    4.5712147216
H        0.8027893987   -0.4238257342    4.5226549233
19   

C        1.7851215096   -1.1874483467   -0.1204028226
C        0.7952334512   -0.4554598749    0.5233214930
C        2.7929168442   -1.7972298197    0.6288528587
C        0.8181686263   -0.3410828089    1.9123846327
C        2.8473026993   -1.6936119805    2.0374209285
C        1.8268858853   -0.9486340175    2.6856255524
C        3.9413727971   -2.3720542649    2.7462663155
C        1.7602337253   -0.7999967632    4.1871971136
N        4.3618243551   -2.2061839551    4.0441019270
N        4.7209919248   -3.3071917447    2.1543707971
N        5.4021292053   -3.0688869518    4.1883441886
N        5.6104839980   -3.7051975413    3.0967461024
H        1.7779144883   -1.2872296490   -1.1990965004
H        0.0091450956    0.0204403672   -0.0504863288
H        3.5567953216   -2.3632137295    0.1082722239
H        0.0355280284    0.2281291761    2.3988588808
H        1.7762109266   -1.7839584156    4.6657651578
H        2.6102794287   -0.2106965320    4.5441243428
H        0.8410157309   -0.2923606035    4.4923728036
19   

C        1.7690019231   -1.2234259713   -0.1251564230
C        0.7811884124   -0.4865485076    0.5147002951
C        2.7815466656   -1.8227623839    0.6257991719
C        0.8131257061   -0.3543156897    1.9014723651
C        2.8426805552   -1.7077621576    2.0346118930
C        1.8264778898   -0.9514359991    2.6772974018
C        3.9456562309   -2.3727523235    2.7424947441
C        1.7803580226   -0.7543787410    4.1742560492
N        4.2170642899   -2.4062428860    4.0896770987
N        4.8977458642   -3.0862967864    2.0958680308
N        5.3456891481   -3.1542511081    4.2048852077
N        5.7398683693   -3.5478279875    3.0524418049
H        1.7571035899   -1.3348708674   -1.2026727824
H       -0.0083635095   -0.0180442558   -0.0604439594
H        3.5406506301   -2.3925027254    0.1026114625
H        0.0347202195    0.2239463544    2.3840471020
H        1.6934642219   -1.7212423270    4.6791663254
H        2.6876076734   -0.2468291413    4.5157219897
H        0.9217192092   -0.1431235996    4.4655775785
