24   

C       -1.2724071683   -1.2579376950    2.3593435718
C       -3.7727243882    0.2981344634    3.2428246841
C       -4.9904586694    0.8868078555    1.2460867111
C       -4.9066037545    0.5944132490    4.0092930289
C       -6.1171647983    1.1818653789    2.0218140421
C       -3.7937011450    0.4228059300    1.8364152359
C       -6.0878054303    1.0340584573    3.4091162287
C       -2.6854717471    0.1432730852    0.9320187222
C       -0.4589375049   -0.7227205041    0.1251268414
C       -1.5263417131   -0.5549163862    1.1402471041
C       -1.0336115878    0.8582770921   -3.0446786318
N       -1.0226455693   -1.8431056574    3.3351671990
N       -0.3272042111   -0.2354158294   -1.0922450160
O       -1.2842219930    0.6365800549   -1.6568386558
Cl      -7.4962101365    1.3998925625    4.3744796663
H       -2.8922516709   -0.0002920943    3.7927449461
H       -5.0595090356    1.0132890269    0.1714831688
H       -4.8683100606    0.4872064214    5.0872307343
H       -7.0271221693    1.5282056858    1.5457805366
H       -2.8814589186    0.4899532192   -0.0686305994
H        0.3691321946   -1.3562707037    0.4240660750
H       -1.8500840700    1.4420414614   -3.4789335585
H       -0.9621496976   -0.0963474785   -3.5755077692
H       -0.0966919042    1.4086029312   -3.1728898740
24   

C       -1.4319057483   -1.3619197729    2.3162748078
C       -3.6821284290    0.4970710543    3.2278630549
C       -5.0665872739    0.7147059799    1.2621347233
C       -4.7961228874    0.7653229379    4.0323800366
C       -6.1738944997    0.9832923377    2.0750574641
C       -3.7981109251    0.4577746500    1.8240668906
C       -6.0502012849    1.0079028352    3.4662455028
C       -2.7027396075    0.1672812213    0.9032968785
C       -0.5370052655   -0.8418413730    0.1014139013
C       -1.6012822411   -0.6175782986    1.1064087115
C       -0.9027118266    0.9746532109   -2.9703772857
N       -1.2597134286   -1.9734541939    3.2925110724
N       -0.3443446785   -0.3104262039   -1.0884693302
O       -1.2063369029    0.6816917705   -1.6064838279
Cl      -7.4346319760    1.3405535086    4.4772254964
H       -2.7320386793    0.3481575525    3.7249110327
H       -5.2020322296    0.6967187334    0.1865689686
H       -4.6868314943    0.7894803386    5.1104601735
H       -7.1421916937    1.1721238637    1.6264066197
H       -2.9014608547    0.5030857165   -0.1020039749
H        0.2246305861   -1.5608713062    0.3828684243
H       -1.6600580887    1.6480879645   -3.3812938058
H       -0.8903579297    0.0547613075   -3.5636060307
H        0.0768237338    1.4570458201   -3.0405778677
24   

C       -1.5948162411   -1.4093628684    2.2574844422
C       -3.6284904482    0.6828832749    3.1740783566
C       -5.1322617909    0.5678907268    1.2889344638
C       -4.7178777481    0.9149033380    4.0220124549
C       -6.2162547072    0.8011827667    2.1435640186
C       -3.8174139897    0.5104993856    1.7909041406
C       -6.0196582279    0.9768197959    3.5163474121
C       -2.7281872320    0.2210183677    0.8545898188
C       -0.6456292061   -0.9425413108    0.0470232444
C       -1.6954988140   -0.6509689387    1.0481759948
C       -0.7902665401    1.0384150896   -2.9409023323
N       -1.4817448590   -2.0300436129    3.2364575146
N       -0.3990316047   -0.3947114919   -1.1249303261
O       -1.1675790587    0.6872287094   -1.6095802952
Cl      -7.3746852133    1.2656185099    4.5793013088
H       -2.6344780821    0.6532275585    3.6054050858
H       -5.3173158233    0.4237109528    0.2304245596
H       -4.5536376032    1.0473649460    5.0850984177
H       -7.2225284819    0.8424098946    1.7432935220
H       -2.9219484145    0.5658928892   -0.1495428057
H        0.0493129760   -1.7306940546    0.3155078173
H       -1.4815432260    1.7883667369   -3.3353975789
H       -0.8189583867    0.1570561256   -3.5894517947
H        0.2227538324    1.4518599078   -2.9462935111
24   

C       -1.7480566850   -1.4490605980    2.1950695108
C       -3.5944064924    0.8661959587    3.1126678639
C       -5.1726508497    0.4069260850    1.3454396928
C       -4.6553175747    1.0673587621    4.0033487427
C       -6.2295442630    0.6098015969    2.2411157259
C       -3.8387049712    0.5525955059    1.7658020581
C       -5.9812456469    0.9452968781    3.5759478690
C       -2.7520809865    0.2687134559    0.8132435211
C       -0.7590310528   -1.0277402684   -0.0125717950
C       -1.7896336607   -0.6794248021    0.9890873290
C       -0.6736612054    1.0994620233   -2.9005752520
N       -1.6852339036   -2.0812833336    3.1710834237
N       -0.4620118010   -0.4656588674   -1.1656249317
O       -1.1383234866    0.6911187923   -1.6139619305
Cl      -7.3020108539    1.1972489570    4.6901627754
H       -2.5757570242    0.9582835254    3.4731502048
H       -5.3909131847    0.1318246294    0.3197108619
H       -4.4506128721    1.3149393788    5.0384193565
H       -7.2537454079    0.5009450745    1.9040420902
H       -2.9342624909    0.6377072380   -0.1850888432
H       -0.1298518551   -1.8745819328    0.2386812816
H       -1.2942923917    1.9183164030   -3.2749955633
H       -0.7276177903    0.2648121911   -3.6066989487
H        0.3631897297    1.4424439907   -2.8330041416
24   

C       -1.9021084311   -1.5550991549    2.0833601462
C       -3.5772163914    1.0302486326    3.0258802519
C       -5.1808993591    0.2010525089    1.4263857924
C       -4.6065917023    1.2237583068    3.9546009829
C       -6.2073755094    0.3955732789    2.3586287206
C       -3.8562014732    0.5427831302    1.7410110205
C       -5.9310408372    0.9143238755    3.6280525106
C       -2.7725416628    0.2719534532    0.7684737499
C       -0.8555811932   -1.1085029765   -0.0974246586
C       -1.8775702890   -0.7419811384    0.9056471864
C       -0.5643016202    1.1734594223   -2.8501326826
N       -1.8967746622   -2.2286510761    3.0333293471
N       -0.5056745919   -0.5100669792   -1.2166815821
O       -1.1017492501    0.7085541385   -1.6120123269
Cl      -7.2137961021    1.1595839662    4.7872711522
H       -2.5548095986    1.2608848745    3.3041345714
H       -5.4146305908   -0.2175564146    0.4539964381
H       -4.3785278751    1.6111378384    4.9407026733
H       -7.2282203747    0.1377798518    2.1020258128
H       -2.9227463943    0.7135784677   -0.2056600673
H       -0.2850719516   -2.0044855184    0.1212159936
H       -1.1235628095    2.0495942422   -3.1900133816
H       -0.6359196530    0.3915954287   -3.6127903268
H        0.4863187960    1.4511349277   -2.7220536475
24   

C       -2.1256165073   -1.7788839059    1.9039219891
C       -3.6098692387    1.2641312819    2.9017939173
C       -5.1495685352   -0.0083291454    1.5500893830
C       -4.6311760257    1.5140051497    3.8263087145
C       -6.1683594841    0.2434318274    2.4769118346
C       -3.8589542731    0.5002980384    1.7545949253
C       -5.9192038427    1.0073001274    3.6222911242
C       -2.7809228899    0.2383431729    0.7674248840
C       -0.8696764949   -1.1465297229   -0.1158210880
C       -1.9584923745   -0.8398663736    0.8366322714
C       -0.4839963258    1.2015950361   -2.8016027144
N       -2.2383299968   -2.5590988464    2.7610518027
N       -0.4632914798   -0.5044288500   -1.1910875064
O       -1.0896619795    0.6879404839   -1.6155161792
Cl      -7.1915669010    1.3211655283    4.7764098619
H       -2.6166359834    1.6613011160    3.0787902179
H       -5.3597852483   -0.6061245599    0.6702944164
H       -4.4264945930    2.1031985442    4.7125410716
H       -7.1614928698   -0.1576150928    2.3117527802
H       -2.6924280162    0.9818591750   -0.0097964242
H       -0.3059824559   -2.0484720630    0.0959144499
H       -0.9860115362    2.1254390376   -3.1023435335
H       -0.5677697279    0.4728400527   -3.6137132235
H        0.5740793490    1.4161039671   -2.6223935457
24   

C       -2.3104674658   -1.9853429784    1.6925686972
C       -3.6760596948    1.4834899743    2.7274112795
C       -5.0763208709   -0.1945997034    1.7163771697
C       -4.7014128257    1.7940157302    3.6289155146
C       -6.1005742090    0.1178175753    2.6181911718
C       -3.8383306949    0.4617330580    1.7819738871
C       -5.9208210375    1.1106976232    3.5864501669
C       -2.7806753832    0.1955036753    0.7805720432
C       -0.8873317634   -1.1797679914   -0.1472619799
C       -2.0252426290   -0.9344989748    0.7637023620
C       -0.4462531961    1.2999560135   -2.7022447892
N       -2.5246147034   -2.8570765485    2.4344054539
N       -0.4434589803   -0.4747150329   -1.1666988466
O       -1.0996457348    0.7063806729   -1.5803406991
Cl      -7.1973432471    1.4971847468    4.7136025648
H       -2.7422658057    2.0325613561    2.7723469832
H       -5.2389794450   -0.9611024156    0.9667207410
H       -4.5547492079    2.5719163610    4.3690799023
H       -7.0445680949   -0.4121876345    2.5686748745
H       -2.4222566391    1.0738272847    0.2643560238
H       -0.3308480452   -2.0926987227    0.0341775380
H       -0.8982652263    2.2712565900   -2.9217487172
H       -0.5484354599    0.6547538458   -3.5800611964
H        0.6173649804    1.4460384254   -2.4890240167
24   

C       -2.4077121944   -2.0926376059    1.5651083586
C       -3.7377669907    1.6078459919    2.5912197513
C       -4.9901181546   -0.3179667533    1.8742243134
C       -4.7617158083    1.9388439245    3.4869288074
C       -6.0127616159    0.0146810938    2.7705237412
C       -3.8186970429    0.4536530014    1.7981605649
C       -5.9055478337    1.1420569046    3.5899356752
C       -2.7702458919    0.1739658063    0.8026811958
C       -0.9640368446   -1.2422378920   -0.2332485972
C       -2.0825399778   -0.9979280298    0.7024905639
C       -0.3779760912    1.3852684902   -2.6056066632
N       -2.6611383217   -3.0012197896    2.2480645416
N       -0.4861442728   -0.4964727441   -1.2075011329
O       -1.0773167238    0.7433241177   -1.5393856079
Cl      -7.1801485752    1.5544850752    4.7100337096
H       -2.8660841596    2.2489721904    2.5234078394
H       -5.1080219253   -1.1881556315    1.2378765522
H       -4.6732242162    2.8221987861    4.1085108871
H       -6.9001792990   -0.6045194846    2.8307890680
H       -2.3502688249    1.0570100755    0.3446116061
H       -0.4563073955   -2.1934686380   -0.1172356759
H       -0.7712855621    2.3953829290   -2.7501669327
H       -0.5065553306    0.8184807914   -3.5326682233
H        0.6897423215    1.4525379242   -2.3740631521
24   

C       -2.4716966915   -2.1976569539    1.4636330720
C       -3.8073012953    1.6755322367    2.4483065225
C       -4.9153170383   -0.4207628781    2.0429124787
C       -4.8154592869    2.0331067507    3.3513454152
C       -5.9215875180   -0.0605798972    2.9472305986
C       -3.8191535004    0.4288226513    1.8019796723
C       -5.8783839005    1.1659369262    3.6146748302
C       -2.7753754639    0.1255000407    0.8199558773
C       -1.0677275563   -1.3164095050   -0.3425296939
C       -2.1478895431   -1.0738024070    0.6391497175
C       -0.3290752580    1.4431059806   -2.5132769236
N       -2.7253520093   -3.1310276076    2.1123593010
N       -0.5716443608   -0.5406389229   -1.2840360894
O       -1.0936748318    0.7495334145   -1.5271500176
Cl      -7.1336189706    1.6120953079    4.7436722135
H       -2.9995008660    2.3739601688    2.2608342258
H       -5.0059957474   -1.3684146201    1.5247835183
H       -4.7771251090    2.9924105139    3.8541534050
H       -6.7486399416   -0.7366760003    3.1303241144
H       -2.3324617205    1.0042990487    0.3769301918
H       -0.6059829090   -2.2966107107   -0.2956909519
H       -0.6728294444    2.4786623614   -2.5865944269
H       -0.4482407016    0.9597941582   -3.4876351611
H        0.7315048858    1.4423182228   -2.2423411108
24   

C       -2.2755569860   -2.2036872103    1.9894135048
C       -3.9762622020    1.6783533535    2.9322100964
C       -4.7587528948   -0.4140081401    2.0437311949
C       -5.2736250954    1.9823442994    3.3603113062
C       -6.0549505067   -0.1063466832    2.4750351673
C       -3.6820258164    0.4639956177    2.2867020419
C       -6.3244019144    1.0903975815    3.1414414172
C       -2.3100903529    0.2317137599    1.8448447027
C       -0.2605442789   -1.0785681511    1.1849661415
C       -1.6589286615   -0.9563694792    1.6571434247
C        1.3824470122    2.0108017870    0.3974359502
N       -2.7517978432   -3.2362817636    2.2416268337
N        0.5964173418   -0.1680387705    0.7703182585
O        0.2439866646    1.1969249515    0.6798896554
Cl      -7.9424734994    1.4695960489    3.6774940916
H       -3.1871749480    2.3979317543    3.1194628675
H       -4.6285451607   -1.3385488575    1.4965160036
H       -5.4710621157    2.9192551339    3.8680540462
H       -6.8644656007   -0.8012783147    2.2839316112
H       -1.7240335669    1.1362918274    1.8144837156
H        0.1381735906   -2.0870668334    1.1681571927
H        1.1068554492    3.0671419249    0.4617054978
H        1.7516511144    1.8009798534   -0.6109119244
H        2.1815970473    1.8109795801    1.1183603088
24   

C       -2.2813059963   -2.2658634915    1.8047709346
C       -3.9969610534    1.7227542880    2.7569930702
C       -4.7500853089   -0.5027056508    2.2505015989
C       -5.2783793810    2.0557429978    3.2094551290
C       -6.0304504981   -0.1636056585    2.7062299700
C       -3.6928792103    0.4336197520    2.2785337927
C       -6.3069257203    1.1145176836    3.1924659405
C       -2.3293197772    0.1864521292    1.8271843570
C       -0.2949300034   -1.0804206518    1.0463896293
C       -1.6857161834   -0.9904576275    1.5528313242
C        1.4197082486    2.0350697316    0.5720116362
N       -2.7250516293   -3.3266460738    1.9916760615
N        0.5739761980   -0.1495866742    0.7065619377
O        0.2591125276    1.2260667758    0.7634155762
Cl      -7.9062847354    1.5297076067    3.7572355803
H       -3.2279181128    2.4863127793    2.7901530803
H       -4.6447001480   -1.5021075561    1.8562802943
H       -5.4801812089    3.0544614809    3.5788666499
H       -6.8240281432   -0.9012921865    2.6754449657
H       -1.7504387812    1.0933093875    1.7802327072
H        0.0910953476   -2.0873011683    0.9294197951
H        1.1677056732    3.0869123055    0.7335617626
H        1.7972395900    1.9131753807   -0.4476565704
H        2.2041938936    1.7482761526    1.2795048412
24   

C       -2.3532835733   -2.2646565273    1.4853096554
C       -4.0373340597    1.7617674851    2.5823725099
C       -4.7032566264   -0.5445049875    2.4588031237
C       -5.3148732532    2.1102513550    3.0330569484
C       -5.9805542911   -0.1874682526    2.9106698206
C       -3.6934809692    0.4284330712    2.2824798444
C       -6.2995642205    1.1387044753    3.2017971809
C       -2.3348400776    0.1771583629    1.8211768063
C       -0.3013662271   -1.0635404023    1.0020450712
C       -1.7116454066   -0.9874404719    1.4588991893
C        1.5233569971    2.0299928241    0.8225416882
N       -2.8191624118   -3.3325733620    1.4850060409
N        0.6195575247   -0.1360114161    0.8292930262
O        0.3687161504    1.2310784300    1.0790309078
Cl      -7.8948311125    1.5722595666    3.7643486849
H       -3.3050537951    2.5529805963    2.4668384654
H       -4.5753913228   -1.5965193980    2.2664360226
H       -5.5478475254    3.1451575484    3.2551867328
H       -6.7376170665   -0.9528041539    3.0375942997
H       -1.7599619371    1.0853211007    1.7745867556
H        0.0528299346   -2.0599350081    0.7603618710
H        1.2994681966    3.0799155159    1.0311857465
H        1.8231560928    1.9336897231   -0.2255067970
H        2.3523018577    1.7113195163    1.4620072589
24   

C       -2.4790542728   -2.1804487140    1.1834552821
C       -4.1132823070    1.7729180517    2.3908066187
C       -4.6148144859   -0.5605952122    2.6728124839
C       -5.3934499719    2.1054019631    2.8471770599
C       -5.8954980715   -0.2213383861    3.1275138744
C       -3.6926259620    0.4337010917    2.2776639051
C       -6.2988378145    1.1112982520    3.2161499137
C       -2.3392001839    0.1908555698    1.7946307267
C       -0.3286446895   -1.0656757765    0.9392394046
C       -1.7482016734   -0.9634153387    1.3553504108
C        1.5921212092    1.9595822696    1.1152875325
N       -3.0318767295   -3.1941675432    1.0289846139
N        0.6493685946   -0.1822881528    0.9429348309
O        0.4677749417    1.1344613188    1.4204555668
Cl      -7.8966848208    1.5258928712    3.7856179233
H       -3.4433108201    2.5790176730    2.1135187522
H       -4.3819552890   -1.6146862791    2.6775287852
H       -5.6909798583    3.1452504206    2.9165892629
H       -6.5848742578   -1.0037709285    3.4232401832
H       -1.7680539609    1.1010230274    1.7228279699
H       -0.0254227923   -2.0362626842    0.5617183500
H        1.3761875055    2.9954130338    1.3916967495
H        1.8135527848    1.9198855080    0.0440198097
H        2.4692415857    1.6187965804    1.6735261910
24   

C       -2.5823378064   -2.0923713220    1.0520994729
C       -4.2070324812    1.7554995688    2.2318922047
C       -4.5040965444   -0.5452241232    2.8624679702
C       -5.4892472010    2.0521576316    2.7080783703
C       -5.7869049928   -0.2441955827    3.3363924863
C       -3.6928330396    0.4471586397    2.2741271506
C       -6.2940619115    1.0541563935    3.2592920920
C       -2.3362554356    0.2226941760    1.7834328810
C       -0.3860707542   -1.0467057149    0.8156772030
C       -1.7901876614   -0.9211735942    1.2695007613
C        1.6533445847    1.8683559506    1.2714059039
N       -3.1969038321   -3.0650285322    0.8706727354
N        0.6236224619   -0.2030899897    0.8803916998
O        0.4942946555    1.0642088228    1.4909578321
Cl      -7.8944687866    1.4246640699    3.8515155905
H       -3.6118461759    2.5586483424    1.8121089184
H       -4.1577341119   -1.5623007069    2.9919590099
H       -5.8672489395    3.0662790321    2.6509869535
H       -6.3947142264   -1.0260828005    3.7768282083
H       -1.7684961830    1.1351327300    1.6947710019
H       -0.1297253588   -1.9934041889    0.3526687253
H        1.4760559852    2.8816275047    1.6425979681
H        1.8837300989    1.9202466221    0.2025172817
H        2.5107646487    1.4415188029    1.8003222879
24   

C       -2.6676252261   -1.9986245734    0.9698894700
C       -4.2928120898    1.7240969696    2.0878321244
C       -4.3911863389   -0.4900534415    3.0226822231
C       -5.5765493086    1.9881916625    2.5797941575
C       -5.6752269362   -0.2231677705    3.5126621948
C       -3.6882884040    0.4696779680    2.2700833705
C       -6.2827343317    1.0151057944    3.2907852760
C       -2.3200100562    0.2621683884    1.7899872250
C       -0.4423193052   -1.0085845683    0.6918318217
C       -1.8252607721   -0.8645447917    1.1978699391
C        1.7275286155    1.7681245125    1.3657420067
N       -3.3281703580   -2.9396672044    0.7841776557
N        0.5958655456   -0.2038333823    0.7862622529
O        0.5210779876    1.0159261615    1.4953087240
Cl      -7.8851954365    1.3449569212    3.9012149811
H       -3.7686373896    2.5031096542    1.5457354747
H       -3.9468002484   -1.4531803640    3.2454554212
H       -6.0326316476    2.9567863916    2.4113930217
H       -6.2054234554   -0.9821874033    4.0760719712
H       -1.7492894521    1.1743982302    1.7073099690
H       -0.2332573168   -1.9309717049    0.1610859308
H        1.5958172413    2.7577999618    1.8119650762
H        1.9885112551    1.8897514595    0.3096491201
H        2.5462118394    1.2539238914    1.8781104340
24   

C       -2.7279809008   -1.8892757675    0.8780345161
C       -4.3848108478    1.6650000661    1.9496075537
C       -4.2807531528   -0.4013307579    3.1789364435
C       -5.6681389066    1.9010234610    2.4572171255
C       -5.5640636228   -0.1634639291    3.6852366672
C       -3.6862883266    0.4921697844    2.2723346694
C       -6.2724988788    0.9862061653    3.3242330435
C       -2.3051512318    0.3077274377    1.7967008725
C       -0.4910852805   -0.9223678417    0.5565954920
C       -1.8518796346   -0.7833601709    1.1180459170
C        1.7864733704    1.7026526099    1.4491042981
N       -3.4183935092   -2.8059931259    0.6802125811
N        0.5674191116   -0.1489601775    0.6795261311
O        0.5383880265    1.0106744116    1.4864453791
Cl      -7.8744713915    1.2806279966    3.9537686498
H       -3.9347223523    2.3961394688    1.2875412250
H       -3.7470540699   -1.2925925329    3.4902050373
H       -6.2030846019    2.8019055925    2.1801687916
H       -6.0156237539   -0.8746136182    4.3670803822
H       -1.7330724383    1.2217721958    1.7399000733
H       -0.3211459517   -1.8092041619   -0.0440125419
H        1.6969084749    2.6551349498    1.9788913453
H        2.0800347385    1.9014383888    0.4135193843
H        2.5631858556    1.1007342150    1.9304187088
24   

C       -2.7987768473   -1.7638008656    0.7422112297
C       -4.4732230009    1.5541479715    1.8170283624
C       -4.1805235947   -0.2847690089    3.3438705214
C       -5.7606322971    1.7685314469    2.3240790858
C       -5.4677581968   -0.0684259315    3.8500358727
C       -3.6799458227    0.5031366708    2.2969097657
C       -6.2719600644    0.9562127522    3.3411063810
C       -2.2906528192    0.3347038069    1.8132430725
C       -0.5344913174   -0.8437537103    0.4483040717
C       -1.8815513458   -0.7065345451    1.0410199660
C        1.8446726387    1.6076215326    1.5443134806
N       -3.5237965476   -2.6389850719    0.4882461745
N        0.5495928068   -0.1160739660    0.6174165902
O        0.5655109687    0.9745019526    1.5158356483
Cl      -7.8789556415    1.2230998329    3.9701491290
H       -4.0934939628    2.2021209400    1.0351033650
H       -3.5689683113   -1.0783965434    3.7587476492
H       -6.3716666502    2.5716214006    1.9288998308
H       -5.8488601314   -0.6986102693    4.6450890198
H       -1.6973947967    1.2369950007    1.8333848870
H       -0.4017581043   -1.6851824312   -0.2228246881
H        1.7941959600    2.5153810153    2.1520528493
H        2.1571038758    1.8785511654    0.5308765050
H        2.5879892109    0.9316293025    1.9776925145
24   

C       -2.8982963956   -1.5268786432    0.4994897369
C       -4.5764301147    1.3527057451    1.6569381430
C       -4.0787118184   -0.1187921083    3.5019260073
C       -5.8827910056    1.5081604788    2.1359779472
C       -5.3859840228    0.0388532579    3.9778549811
C       -3.6613991638    0.5378197939    2.3353332071
C       -6.2992431244    0.8541287733    3.3005382745
C       -2.2727705683    0.3747913830    1.8349642537
C       -0.5456483261   -0.8080702507    0.4319973736
C       -1.9098598969   -0.6016636496    0.9640328724
C        1.9173420574    1.5266856022    1.5975076178
N       -3.6810086343   -2.2935018310    0.1048210077
N        0.5709886620   -0.1458993241    0.6517524491
O        0.6062610255    0.9677203051    1.5194073148
Cl      -7.9288491272    1.0504772306    3.8965578214
H       -4.2727899817    1.8638434357    0.7502255949
H       -3.3858690048   -0.7582284275    4.0373464921
H       -6.5837386741    2.1383921279    1.6012530713
H       -5.6999133287   -0.4760370848    4.8782805533
H       -1.5690333954    1.0990712030    2.2156245861
H       -0.4344441304   -1.6402260905   -0.2544677653
H        1.9125502605    2.3866989294    2.2730118119
H        2.2463873744    1.8564595289    0.6072404675
H        2.6228198928    0.7816801241    1.9781614539
24   

C       -2.9620024048   -1.2780895714    0.2472285324
C       -4.6694417193    1.1252443967    1.5403021702
C       -3.9880707729    0.0947509093    3.6117530476
C       -5.9800953195    1.2227446297    2.0222753930
C       -5.3004477684    0.1936518845    4.0896875369
C       -3.6519687322    0.5852748686    2.3401144060
C       -6.3065407442    0.7638744206    3.3026514071
C       -2.2745298067    0.4163310155    1.8226651801
C       -0.5619415013   -0.7647705440    0.4077730175
C       -1.9398718424   -0.4912049836    0.8676235329
C        1.9264614465    1.4747279574    1.6969378992
N       -3.7740285397   -1.9275868770   -0.2770928156
N        0.5696556780   -0.1556418679    0.6936649808
O        0.5970322095    0.9813968218    1.5320969407
Cl      -7.9416133330    0.8894222817    3.9028025154
H       -4.4403405571    1.4718658167    0.5386549326
H       -3.2270827730   -0.3655859972    4.2317438262
H       -6.7547676968    1.6517207816    1.3975080920
H       -5.5469922268   -0.1792601408    5.0768967857
H       -1.5019309195    0.8198667505    2.4604479772
H       -0.4560173428   -1.5881136859   -0.2900524241
H        1.9336896736    2.2759711240    2.4411540292
H        2.3002963403    1.8693614477    0.7472956572
H        2.5899973726    0.6727715721    2.0355817876
24   

C       -2.9912022871   -1.1553541462    0.0686528133
C       -4.7483761816    0.9623639166    1.4967347475
C       -3.9207629511    0.2964010866    3.6637401211
C       -6.0404841570    1.0645318999    2.0252805226
C       -5.2153964488    0.4008045042    4.1866360740
C       -3.6664225934    0.5959790239    2.3136018339
C       -6.2855271682    0.7890968054    3.3742486709
C       -2.3050202075    0.4131539902    1.7825601359
C       -0.5936692366   -0.6734527386    0.2908840594
C       -1.9741429113   -0.4198921491    0.7565050256
C        1.9187170280    1.3904317470    1.8080252855
N       -3.8002452251   -1.7566481712   -0.5145706761
N        0.5432656447   -0.1055862813    0.6353149148
O        0.5797750307    0.9610055733    1.5614019901
Cl      -7.8988864067    0.9178672333    4.0298941763
H       -4.5884354772    1.1729616514    0.4450027129
H       -3.1108272166   -0.0221996064    4.3102181543
H       -6.8641357158    1.3544691410    1.3833271757
H       -5.3980315732    0.1734112610    5.2303772759
H       -1.5237275997    0.7389846444    2.4529469319
H       -0.4895398423   -1.4409966171   -0.4681721905
H        1.9274625238    2.1285115261    2.6149115464
H        2.3382465615    1.8459953962    0.9059663444
H        2.5426771606    0.5401899581    2.1011433621
24   

C       -2.9768191413   -1.0962349483   -0.0897744105
C       -4.8139453042    0.7780504126    1.4793338274
C       -3.8572551228    0.4598170298    3.6730562081
C       -6.0825646523    0.9059735338    2.0570913416
C       -5.1293201655    0.5897562519    4.2430087614
C       -3.6781661000    0.5576892843    2.2793291669
C       -6.2525247609    0.8138833086    3.4415878373
C       -2.3295670035    0.3707284678    1.7380345428
C       -0.5971372722   -0.5740344546    0.1731479473
C       -1.9841849656   -0.3786066222    0.6501094653
C        1.9013972139    1.3159651199    1.9219991411
N       -3.7651736070   -1.6804516975   -0.7171562761
N        0.5335462234   -0.0271043370    0.5691902712
O        0.5620674853    0.9534850098    1.5859454742
Cl      -7.8378066829    0.9733396730    4.1563117923
H       -4.7245683657    0.8668308575    0.4027122288
H       -3.0066722434    0.2746170437    4.3193446094
H       -6.9465979884    1.0773522688    1.4256254862
H       -5.2522473055    0.5118252853    5.3169339634
H       -1.5477480329    0.6716156063    2.4184658488
H       -0.4796257301   -1.2753871222   -0.6456973403
H        1.8980616436    1.9754603535    2.7943383064
H        2.3692985830    1.8396771383    1.0829740939
H        2.4894656810    0.4232446708    2.1575063142
24   

C       -2.9450521225   -1.0271116968   -0.2568674328
C       -4.8748769377    0.5901164602    1.4812010277
C       -3.7998424452    0.6202071600    3.6427355037
C       -6.1175081791    0.7507412785    2.1059096315
C       -5.0467837350    0.7820325693    4.2576002465
C       -3.6901476515    0.5129796329    2.2400943754
C       -6.2163426880    0.8455074604    3.4963703282
C       -2.3529707718    0.3251781605    1.6844087405
C       -0.5888378450   -0.4588487657    0.0637052020
C       -1.9843552283   -0.3311422658    0.5425998709
C        1.8848412508    1.2343984467    2.0342899467
N       -3.7032035825   -1.5957182657   -0.9340340414
N        0.5328073826    0.0638074537    0.5154977881
O        0.5496861437    0.9422291866    1.6217094149
Cl      -7.7704778930    1.0445170089    4.2673706771
H       -4.8612167932    0.5538240937    0.3993550560
H       -2.9144126191    0.5676828764    4.2662487834
H       -7.0177291076    0.8062721970    1.5048242249
H       -5.1130397772    0.8563798004    5.3367797613
H       -1.5725029786    0.6187901138    2.3680861289
H       -0.4531427056   -1.0832594851   -0.8126562431
H        1.8669562548    1.8073870664    2.9655830100
H        2.3939680135    1.8229229341    1.2651753657
H        2.4429487709    0.3077040661    2.2017288382
24   

C       -2.9250998528   -0.9140817193   -0.4164413192
C       -4.9319188681    0.3807276576    1.5192673376
C       -3.7690450264    0.7738806212    3.5951830499
C       -6.1525425864    0.5689438231    2.1792583273
C       -4.9943701584    0.9619792321    4.2444047364
C       -3.7078099340    0.4632814722    2.2183410361
C       -6.1970476540    0.8566162682    3.5445465282
C       -2.3785682327    0.2853814995    1.6476461740
C       -0.5897217244   -0.3446111329   -0.0136162071
C       -1.9932225468   -0.2726569041    0.4582696633
C        1.8759105742    1.1189629970    2.1445631020
N       -3.6485144174   -1.4444260201   -1.1596996213
N        0.5280086383    0.1318134431    0.4966955590
O        0.5426344875    0.8892068324    1.6888678277
Cl      -7.7248419407    1.0886524364    4.3577968189
H       -4.9896415767    0.1984299199    0.4561626569
H       -2.8597105959    0.8622927632    4.1789880889
H       -7.0798954255    0.4964971069    1.6227716184
H       -5.0168382748    1.1909138668    5.3034910258
H       -1.6000322741    0.5788389876    2.3316750446
H       -0.4408511542   -0.8799697063   -0.9451067774
H        1.8530696650    1.6064205110    3.1232572785
H        2.4069010577    1.7647850607    1.4388125136
H        2.4153402966    0.1708697697    2.2358581393
24   

C       -2.9226079434   -0.6394619848   -0.5818527733
C       -4.9507743496    0.1256363117    1.6128711117
C       -3.7594659596    0.9528811709    3.5348599623
C       -6.1598343359    0.3238181201    2.2913820146
C       -4.9729316903    1.1471393499    4.2037865746
C       -3.7113908060    0.4357510970    2.2202635520
C       -6.1844873035    0.8344591133    3.5890662016
C       -2.3866524486    0.2816717306    1.6344289465
C       -0.5832753603   -0.2679444162   -0.0393095899
C       -1.9963171791   -0.1813317332    0.4059734288
C        1.9226676254    0.8683352665    2.2760046855
N       -3.6275826893   -1.0250605879   -1.4254923385
N        0.5476185597    0.0584045600    0.5546212037
O        0.5838077414    0.6097631020    1.8542772736
Cl      -7.6984598459    1.0770898601    4.4247392354
H       -5.0484193282   -0.2720952932    0.6158100652
H       -2.8449263147    1.2119227261    4.0564901923
H       -7.0952687405    0.0772746583    1.8023090722
H       -4.9783986132    1.5450727089    5.2118605659
H       -1.6130006611    0.5916934717    2.3146733233
H       -0.4369663066   -0.6706900232   -1.0357937363
H        1.9171895469    1.2839106331    3.2875788551
H        2.3983579612    1.5864761184    1.6010767382
H        2.5035308059   -0.0591440162    2.2779229934
