22   
Generated by ForceBalance from scan.xyz: Frame 1 of 24
C        2.0069095564   -0.7001839237   -0.0776987361
C        0.8277461777   -0.3566609323    0.5886529440
C        3.0660819710   -1.2792264419    0.6215317747
C        0.7226947746   -0.6134851357    1.9512122378
C        3.0076339586   -1.5343883310    2.0013122608
C        1.7949681512   -1.1921210396    2.6432680028
C        3.9189705386   -3.7100520570    2.8657935089
C        4.2096499360   -2.2137248346    2.6635590514
N        5.4041095198   -2.0806185890    1.8041559498
N        1.5525654921   -1.4179086097    4.0856146678
O        2.5152635314   -1.6562310230    4.8256336020
O        0.3858068637   -1.3503171331    4.4891967457
H        2.1040379045   -0.5193381126   -1.1451877864
H       -0.0017030715    0.1000843308    0.0567235569
H        3.9773999875   -1.5587143648    0.1054809149
H       -0.1805433441   -0.3740140590    2.4983681904
H        3.7700185322   -4.1973097188    1.8972505880
H        4.7611311432   -4.1935609178    3.3739202236
H        3.0302582174   -3.8619620940    3.4812756581
H        4.3632415705   -1.7606227276    3.6440428884
H        6.1421831411   -2.6695721849    2.1863935305
H        5.7518978842   -1.1230664150    1.8501055529
22   
Generated by ForceBalance from scan.xyz: Frame 2 of 24
C        2.0106191083   -0.6759026688   -0.0699771335
C        0.8266443624   -0.3571739165    0.6002700249
C        3.0792018087   -1.2532908897    0.6186131624
C        0.7248454769   -0.6318286965    1.9609554765
C        3.0246725689   -1.5173981773    1.9955505234
C        1.8126458063   -1.1912667891    2.6399152696
C        3.8810316963   -3.7018508242    2.8831517581
C        4.2094094409   -2.2154137454    2.6664104952
N        5.4077663392   -2.1170077735    1.8091135128
N        1.5912546810   -1.4275394512    4.0818144573
O        2.5582212260   -1.3704702359    4.8514480943
O        0.4329359600   -1.6556906275    4.4483523354
H        2.1027912429   -0.4808393957   -1.1353316372
H       -0.0094182922    0.0926461501    0.0727948529
H        3.9885081959   -1.5267563974    0.0954468511
H       -0.1829878773   -0.4164833073    2.5121984430
H        3.7180207482   -4.1958707543    1.9203847194
H        4.7094179612   -4.2021833067    3.3974393313
H        2.9871053835   -3.8269235174    3.4986587680
H        4.3696463797   -1.7555382151    3.6431798060
H        6.1316370774   -2.7203408177    2.1960881378
H        5.7778254987   -1.1676088306    1.8496616104
22   
Generated by ForceBalance from scan.xyz: Frame 3 of 24
C        2.0046796310   -0.6758117774   -0.0697455233
C        0.8272858096   -0.3509632306    0.6095533135
C        3.0768723398   -1.2592418661    0.6102031429
C        0.7318851027   -0.6231720752    1.9729153847
C        3.0273292968   -1.5167166820    1.9875014184
C        1.8249782816   -1.1837199895    2.6365817403
C        3.8552350690   -3.7105715130    2.8718137123
C        4.1932866560   -2.2234013970    2.6769189450
N        5.4103029439   -2.1164845709    1.8495695125
N        1.6390952293   -1.4070492574    4.0840870714
O        2.5509011734   -1.0784775588    4.8522380127
O        0.5583636463   -1.8832912903    4.4476564835
H        2.0882740180   -0.4810288728   -1.1357748653
H       -0.0100292377    0.1019559558    0.0867223787
H        3.9813804040   -1.5385957591    0.0812698606
H       -0.1721883008   -0.4048228921    2.5309643241
H        3.7125393423   -4.1953613791    1.9012176533
H        4.6686299453   -4.2193493323    3.4015604454
H        2.9442470420   -3.8380042192    3.4625864123
H        4.3305702301   -1.7724532679    3.6633934519
H        6.1299173210   -2.7158502799    2.2504607200
H        5.7724169923   -1.1644894275    1.8981037483
22   
Generated by ForceBalance from scan.xyz: Frame 4 of 24
C        1.9859199994   -0.7184299414   -0.0781740429
C        0.8260212089   -0.3445880554    0.6076472021
C        3.0517007234   -1.3118952157    0.6028226107
C        0.7383240332   -0.5753471535    1.9802024271
C        3.0059854346   -1.5325852609    1.9865836720
C        1.8242072495   -1.1522757789    2.6375009048
C        3.8432756212   -3.7554963384    2.7778038465
C        4.1488809426   -2.2508691388    2.6958237192
N        5.4030132397   -2.0562902426    1.9457270271
N        1.6765022540   -1.3247889679    4.0970140400
O        2.4894790963   -0.7542278446    4.8322482510
O        0.7197000720   -1.9986084732    4.4914260732
H        2.0598309395   -0.5511147998   -1.1494749033
H       -0.0043149939    0.1182687523    0.0823270081
H        3.9486828005   -1.6172536920    0.0745269074
H       -0.1522257123   -0.3135240002    2.5427570230
H        3.7757764383   -4.1819254904    1.7723675624
H        4.6362749417   -4.2763921734    3.3265820495
H        2.8991068045   -3.9380851051    3.2984870477
H        4.2198637664   -1.8612081785    3.7171255077
H        6.1312711410   -2.6303126968    2.3677519660
H        5.7090377699   -1.0881611275    2.0386959223
22   
Generated by ForceBalance from scan.xyz: Frame 5 of 24
C        1.9675901495   -0.7580839733   -0.0776630272
C        0.8288438919   -0.3422084787    0.6205555384
C        3.0318413668   -1.3616580789    0.5962495656
C        0.7601740426   -0.5365692164    2.0007147511
C        2.9985331884   -1.5577237190    1.9842206480
C        1.8426803053   -1.1306784833    2.6447523072
C        3.8558897139   -3.7949361489    2.7129678158
C        4.1290218083   -2.2820814006    2.7026446097
N        5.4025419123   -2.0266446464    2.0077163238
N        1.7375467633   -1.2873825094    4.1117302672
O        2.3960960090   -0.5170528670    4.8166216066
O        0.9788577978   -2.1643653208    4.5341210737
H        2.0256985044   -0.6125321302   -1.1530360475
H        0.0005702200    0.1288274792    0.0991588532
H        3.9173033506   -1.6889605517    0.0612010293
H       -0.1114223926   -0.2319042424    2.5723131460
H        3.8362988405   -4.1804764185    1.6892075662
H        4.6404435705   -4.3207776986    3.2693140753
H        2.8970024581   -4.0150591333    3.1899049756
H        4.1549506610   -1.9356949160    3.7441292724
H        6.1346916617   -2.5899665859    2.4373414879
H        5.6725538045   -1.0518254904    2.1343071729
22   
Generated by ForceBalance from scan.xyz: Frame 6 of 24
C        1.9576413944   -0.7877015179   -0.0764234195
C        0.8391925355   -0.3326558813    0.6308122163
C        3.0172744734   -1.4029148081    0.5937464208
C        0.7871076172   -0.4935552015    2.0163842589
C        2.9912084421   -1.5817411316    1.9844018012
C        1.8610429694   -1.1079395888    2.6540731674
C        3.8660469753   -3.8269468806    2.6770144138
C        4.1154224039   -2.3108023659    2.7056815882
N        5.3967376503   -2.0190195604    2.0410318260
N        1.7771954717   -1.2674924976    4.1232810739
O        2.2240768279   -0.3529763681    4.8201151273
O        1.2684485722   -2.3068665431    4.5519694466
H        2.0037459670   -0.6612681095   -1.1547634929
H        0.0144723559    0.1470318877    0.1116444934
H        3.8922101212   -1.7508578456    0.0540969127
H       -0.0647659413   -0.1469806263    2.5940353697
H        3.8675751538   -4.1880546459    1.6442318869
H        4.6521098278   -4.3528595676    3.2312129291
H        2.9046179289   -4.0693749824    3.1363069974
H        4.1166554710   -1.9907314354    3.7579059035
H        6.1331197891   -2.5719312971    2.4768779791
H        5.6425988302   -1.0397769557    2.1811281188
22   
Generated by ForceBalance from scan.xyz: Frame 7 of 24
C        1.9551333917   -0.8116041360   -0.0677122824
C        0.8504484690   -0.3241264159    0.6399043556
C        3.0072045156   -1.4367557301    0.6046381376
C        0.8076434420   -0.4607302146    2.0277540607
C        2.9830399918   -1.6067375268    1.9967157553
C        1.8694034421   -1.0954863554    2.6681435129
C        3.8826251964   -3.8542309345    2.6612482519
C        4.1116972306   -2.3359399138    2.7121114433
N        5.3910076159   -2.0201680967    2.0526439326
N        1.7724391124   -1.2528993199    4.1349200310
O        1.9619835457   -0.2496650313    4.8273530515
O        1.5203678657   -2.3805092328    4.5702537449
H        1.9976432120   -0.7001966451   -1.1478759632
H        0.0312849548    0.1633389638    0.1192241126
H        3.8759990643   -1.7998050406    0.0650394623
H       -0.0275824251   -0.0804415981    2.6082221553
H        3.8886301436   -4.1995566732    1.6230123020
H        4.6777253020   -4.3769103500    3.2056101605
H        2.9260638746   -4.1139150114    3.1193745188
H        4.1079281727   -2.0315774862    3.7690889164
H        6.1331436285   -2.5695436294    2.4832110318
H        5.6253647048   -1.0396826510    2.2032033301
22   
Generated by ForceBalance from scan.xyz: Frame 8 of 24
C        1.9092220799   -0.9567511852   -0.1145377846
C        0.7228000808   -0.5928365115    0.5330757856
C        2.9999746189   -1.4260660372    0.6189835493
C        0.6404675693   -0.6960784892    1.9205404192
C        2.9377189769   -1.5713720829    2.0132840966
C        1.7404891144   -1.1843611880    2.6265373999
C        4.1392698924   -3.6595988824    2.7235814395
C        4.1351955999   -2.1243803892    2.7755820916
N        5.3758366140   -1.6216589265    2.1562804805
N        1.5752859501   -1.3197267602    4.0858128234
O        1.3165825333   -0.2955310614    4.7248329243
O        1.7146961226   -2.4448852341    4.5778157636
H        1.9855633182   -0.8686139618   -1.1950441233
H       -0.1277613198   -0.2262896480   -0.0342608346
H        3.9321240849   -1.6826628638    0.1262036238
H       -0.2558131790   -0.4034206260    2.4583846505
H        4.2333251139   -4.0000340202    1.6879006578
H        4.9857717963   -4.0558625430    3.2964454617
H        3.2185219894   -4.0593263610    3.1520328202
H        4.0504981117   -1.8256246554    3.8291483204
H        6.1754349516   -2.0538300088    2.6166855899
H        5.4566818418   -0.6171165811    2.3093168761
22   
Generated by ForceBalance from scan.xyz: Frame 9 of 24
C        1.9174927195   -0.9545780563   -0.1153878227
C        0.7329662642   -0.5757181171    0.5274276149
C        3.0011783220   -1.4308495645    0.6227511943
C        0.6481127376   -0.6741328152    1.9133799770
C        2.9378933248   -1.5745702223    2.0178974458
C        1.7385210364   -1.1775301268    2.6289904157
C        4.1444171865   -3.6629607439    2.7188864436
C        4.1479057065   -2.1273393776    2.7634999964
N        5.3794476808   -1.6354184387    2.1152308183
N        1.5500376877   -1.2956590123    4.0844507748
O        1.0285129734   -0.3402590965    4.6696174425
O        1.9218535613   -2.3389321452    4.6359126300
H        1.9983560823   -0.8719814855   -1.1960737483
H       -0.1126262332   -0.2023021234   -0.0427982747
H        3.9330220507   -1.6938816808    0.1332034184
H       -0.2444677934   -0.3708814794    2.4500919442
H        4.2199238122   -4.0093039048    1.6835606549
H        4.9989483354   -4.0594958987    3.2794922022
H        3.2302605322   -4.0567056701    3.1658831498
H        4.0862134422   -1.8237064099    3.8152187307
H        6.1842035944   -2.0746646439    2.5597280786
H        5.4730340303   -0.6318337608    2.2676864844
22   
Generated by ForceBalance from scan.xyz: Frame 10 of 24
C        1.9296324103   -0.9343902237   -0.1050112174
C        0.7427761898   -0.5578791318    0.5342847857
C        3.0061113311   -1.4201265863    0.6361778859
C        0.6478279292   -0.6779617283    1.9165801908
C        2.9374443975   -1.5776531916    2.0303415828
C        1.7270998886   -1.1989607528    2.6408996288
C        4.1420513155   -3.6610757996    2.7513652746
C        4.1621084309   -2.1246581436    2.7598942002
N        5.3834971813   -1.6633546874    2.0696776905
N        1.5153460818   -1.3236951379    4.0933161194
O        0.7535624416   -0.5127992311    4.6327829397
O        2.0922694896   -2.2397335561    4.6942550981
H        2.0189832483   -0.8414203072   -1.1842668675
H       -0.0971587705   -0.1719802972   -0.0359839037
H        3.9410554073   -1.6784327340    0.1505878248
H       -0.2489142138   -0.3840848371    2.4496939608
H        4.1915947025   -4.0318326048    1.7228761247
H        5.0044394464   -4.0531727839    3.3029352672
H        3.2349303870   -4.0360945170    3.2274689066
H        4.1301112302   -1.7951442930    3.8033614352
H        6.1913750911   -2.1126426030    2.4980759260
H        5.5004389270   -0.6602560479    2.2089749736
22   
Generated by ForceBalance from scan.xyz: Frame 11 of 24
C        1.9528095639   -0.8877247076   -0.1132930015
C        0.7610681188   -0.5263668320    0.5240833433
C        3.0246316477   -1.3807667979    0.6289502541
C        0.6558115115   -0.6791965099    1.9015273436
C        2.9539631286   -1.5580472155    2.0211747819
C        1.7289072926   -1.2104198215    2.6307182104
C        4.1304039022   -3.6395454025    2.7966438866
C        4.1910094010   -2.1048885671    2.7351398346
N        5.4035718125   -1.7113788866    1.9892780032
N        1.4953102553   -1.3504079293    4.0816134018
O        0.5326778445   -0.7489553314    4.5726147581
O        2.2495646593   -2.0830638418    4.7357380769
H        2.0508098951   -0.7769580288   -1.1901973171
H       -0.0755586014   -0.1291584000   -0.0432593995
H        3.9626454003   -1.6304413914    0.1455315650
H       -0.2491348912   -0.4070111025    2.4305860567
H        4.1450675821   -4.0559754588    1.7845490053
H        4.9948454197   -4.0303812522    3.3458368955
H        3.2266915509   -3.9713532036    3.3096689757
H        4.2013177372   -1.7262704459    3.7605074382
H        6.2051953581   -2.1918237279    2.3946702739
H        5.5726303117   -0.7132755563    2.1095335082
22   
Generated by ForceBalance from scan.xyz: Frame 12 of 24
C        1.9681360750   -0.8265415327   -0.1098069157
C        0.7657006348   -0.5068695277    0.5275035518
C        3.0421142217   -1.3215983005    0.6283858498
C        0.6524704096   -0.7068693501    1.8981523003
C        2.9725118937   -1.5306510978    2.0162511021
C        1.7327402751   -1.2268473277    2.6257489314
C        4.0921381925   -3.6150868204    2.8640576285
C        4.2138279260   -2.0895857790    2.7168740205
N        5.4190465355   -1.7909558412    1.9157625594
N        1.4793436834   -1.4067611469    4.0723773210
O        0.3656955448   -1.0920781856    4.5082104563
O        2.3754799187   -1.8797356442    4.7832916949
H        2.0731142612   -0.6855390614   -1.1825738715
H       -0.0746606833   -0.1090465307   -0.0338185114
H        3.9814692686   -1.5577611424    0.1415649759
H       -0.2651800881   -0.4768821890    2.4245174231
H        4.0496406756   -4.0838333734    1.8759848588
H        4.9605403512   -4.0133247980    3.4013878649
H        3.1978766885   -3.8847191286    3.4281846314
H        4.2732493700   -1.6554739983    3.7167370124
H        6.2087651650   -2.2884734143    2.3239393172
H        5.6388057107   -0.7976934221    1.9858445705
22   
Generated by ForceBalance from scan.xyz: Frame 13 of 24
C        1.9888325526   -0.7584598848   -0.1104281219
C        0.7718978426   -0.4958809715    0.5240567045
C        3.0719531633   -1.2472500326    0.6204569421
C        0.6543988417   -0.7416073119    1.8877192900
C        2.9995920134   -1.4875448738    2.0021852970
C        1.7505170133   -1.2284729594    2.6121757054
C        4.0443519642   -3.5769125896    2.9265741653
C        4.2319849466   -2.0673569106    2.7022161192
N        5.4329221914   -1.8636146268    1.8661496174
N        1.4937456165   -1.4507714010    4.0525191551
O        0.3160696062   -1.4711877905    4.4284890681
O        2.4543182428   -1.5983604909    4.8185378412
H        2.0970710035   -0.5847879305   -1.1780383854
H       -0.0766808483   -0.1098822070   -0.0331562782
H        4.0132833899   -1.4650479932    0.1291470809
H       -0.2767188561   -0.5632252483    2.4109569079
H        3.9504333392   -4.0902205556    1.9646006011
H        4.9081281528   -3.9901159520    3.4598305273
H        3.1562606799   -3.7815185327    3.5274830762
H        4.3305201171   -1.5872081756    3.6769839450
H        6.2007208490   -2.3966835384    2.2710786466
H        5.7142104486   -0.8842407756    1.9063259153
22   
Generated by ForceBalance from scan.xyz: Frame 14 of 24
C        1.9889919460   -0.7299423616   -0.1154903825
C        0.7692796018   -0.4924402256    0.5235784502
C        3.0816986245   -1.2169650848    0.6047389829
C        0.6570866534   -0.7561948432    1.8858149037
C        3.0148596694   -1.4657548678    1.9838691739
C        1.7680477212   -1.2221134743    2.5965996821
C        4.0020268690   -3.5670447297    2.9342962124
C        4.2298225442   -2.0654939219    2.6941495620
N        5.4380843289   -1.8987153976    1.8618104242
N        1.5345998748   -1.4541256953    4.0370917087
O        0.3933865464   -1.7809490089    4.3816861089
O        2.4727477790   -1.2919546516    4.8271300034
H        2.0907774539   -0.5424453142   -1.1813218070
H       -0.0857329818   -0.1138911250   -0.0289066799
H        4.0199382669   -1.4301353131    0.1051709336
H       -0.2769103759   -0.6029033420    2.4137263928
H        3.8936468262   -4.0892072240    1.9787347706
H        4.8528332098   -3.9981258238    3.4740587316
H        3.1067841809   -3.7435988148    3.5351646466
H        4.3343098023   -1.5766629850    3.6646688003
H        6.1941569269   -2.4392755505    2.2788609088
H        5.7376228848   -0.9242633846    1.8888076113
22   
Generated by ForceBalance from scan.xyz: Frame 15 of 24
C        1.9805177902   -0.7329369214   -0.1135489644
C        0.7684175037   -0.4856135618    0.5367003782
C        3.0775968202   -1.2266716303    0.5972275747
C        0.6642023854   -0.7444412823    1.9021873067
C        3.0176973864   -1.4671823440    1.9770975181
C        1.7807406878   -1.2141212717    2.5959656645
C        3.9818295429   -3.5798719273    2.9194403884
C        4.2163125284   -2.0758830211    2.7027302464
N        5.4396618955   -1.8958830094    1.8979044020
N        1.5823924109   -1.4293790451    4.0429370561
O        0.5476091716   -2.0078955402    4.3914735868
O        2.4453936251   -1.0102973623    4.8230715334
H        2.0724334908   -0.5476539029   -1.1805859811
H       -0.0883602133   -0.1028176729   -0.0100939084
H        4.0110648735   -1.4468546287    0.0911094254
H       -0.2652366519   -0.5851181528    2.4383648421
H        3.8943059955   -4.0906256671    1.9556400893
H        4.8186035596   -4.0192363771    3.4742890241
H        3.0703832963   -3.7625495746    3.4947875895
H        4.2999761635   -1.5985772206    3.6829672435
H        6.1915756756   -2.4355003964    2.3235987336
H        5.7319868323   -0.9197467266    1.9362704754
22   
Generated by ForceBalance from scan.xyz: Frame 16 of 24
C        1.9706004893   -0.7941197523   -0.1287507221
C        0.7794158602   -0.4950484385    0.5396922444
C        3.0679941150   -1.3011715550    0.5717809979
C        0.6932146785   -0.7135332073    1.9145719747
C        3.0223080897   -1.5061949287    1.9579717913
C        1.8092287675   -1.2029183036    2.5913483041
C        4.0038454387   -3.6520722127    2.7940365521
C        4.2050844826   -2.1313234771    2.6893535620
N        5.4502437263   -1.8619823486    1.9475178679
N        1.6587411159   -1.3723572970    4.0510808467
O        0.7762994469   -2.1431289027    4.4415664077
O        2.4171721023   -0.7340143151    4.7884583145
H        2.0448091549   -0.6359740152   -1.2014241300
H       -0.0759073291   -0.0998767400   -0.0006042566
H        3.9902530142   -1.5492402920    0.0571370028
H       -0.2203257650   -0.5084264987    2.4638563513
H        3.9723547928   -4.0978070011    1.7952470486
H        4.8278107896   -4.1079673901    3.3549384488
H        3.0715236251   -3.8913709206    3.3130467813
H        4.2384350216   -1.7210540149    3.7045905111
H        6.2128200578   -2.3742291771    2.3880025167
H        5.6853977770   -0.8728144524    2.0239746151
22   
Generated by ForceBalance from scan.xyz: Frame 17 of 24
C        1.9545132386   -0.8449436047   -0.1260409548
C        0.7826233078   -0.4990558642    0.5553318907
C        3.0512620780   -1.3612027221    0.5679070677
C        0.7138105595   -0.6742957329    1.9381341204
C        3.0168366747   -1.5362556326    1.9587225506
C        1.8281762781   -1.1798815883    2.6027477716
C        4.0278861668   -3.6981740865    2.7169925349
C        4.1877572643   -2.1693368540    2.6977260100
N        5.4475270956   -1.8245536064    2.0163705532
N        1.7217662871   -1.3222826163    4.0712868354
O        1.0429365392   -2.2588159698    4.5018415413
O        2.3194568123   -0.4976488037    4.7686918602
H        2.0130438979   -0.7134445437   -1.2031991325
H       -0.0713401612   -0.0961399883    0.0185231741
H        3.9631428425   -1.6340491826    0.0467519307
H       -0.1829699064   -0.4219255435    2.4961076627
H        4.0508007004   -4.0916816557    1.6963505455
H        4.8420706757   -4.1597580436    3.2875885892
H        3.0818689349   -3.9855318346    3.1836688575
H        4.1744380962   -1.8147002989    3.7366943621
H        6.2146041833   -2.3249682066    2.4626181459
H        5.6398953443   -0.8304513094    2.1345233893
22   
Generated by ForceBalance from scan.xyz: Frame 18 of 24
C        1.9376390330   -0.8617646863   -0.1250516055
C        0.7770722041   -0.4872649592    0.5611281834
C        3.0303142096   -1.3895291965    0.5664817189
C        0.7157016053   -0.6408541013    1.9472035844
C        2.9962378514   -1.5588335037    1.9580747745
C        1.8228647804   -1.1672271670    2.6063160650
C        4.0265666057   -3.7240976264    2.6909815169
C        4.1611777620   -2.1933235690    2.7036582376
N        5.4268004602   -1.8139850951    2.0529430394
N        1.7282925688   -1.3194862069    4.0756477354
O        1.2891342123   -2.3890584047    4.5069815327
O        2.0889838825   -0.3656853369    4.7697652587
H        1.9910322514   -0.7405739297   -1.2036566272
H       -0.0733388997   -0.0753903708    0.0254386867
H        3.9371519808   -1.6746114781    0.0429026337
H       -0.1688821034   -0.3553967284    2.5088914519
H        4.0670551392   -4.0959658039    1.6628288865
H        4.8435506568   -4.1830069800    3.2598056431
H        3.0808884122   -4.0329559100    3.1430829131
H        4.1230462410   -1.8616475330    3.7516061572
H        6.1959451324   -2.3033772823    2.5078023262
H        5.5954550122   -0.8170995439    2.1827996673
22   
Generated by ForceBalance from scan.xyz: Frame 19 of 24
C        1.9339690952   -0.8833610823   -0.1170636152
C        0.7859017922   -0.4737929383    0.5707942945
C        3.0202117920   -1.4222942964    0.5751791821
C        0.7324291760   -0.6020878696    1.9590516035
C        2.9873862654   -1.5819018373    1.9682820273
C        1.8295459787   -1.1501951872    2.6199284395
C        4.0425791313   -3.7504054651    2.6660634504
C        4.1557796962   -2.2187825920    2.7074319682
N        5.4184527195   -1.8120198746    2.0662856659
N        1.7196355718   -1.3045932611    4.0862853362
O        1.5341305530   -2.4436905059    4.5253558388
O        1.7940478647   -0.2824897112    4.7730246662
H        1.9833198512   -0.7781378660   -1.1975528404
H       -0.0595951676   -0.0531601848    0.0341615134
H        3.9215016451   -1.7236365785    0.0511332305
H       -0.1372346676   -0.2807350503    2.5243102409
H        4.0911085041   -4.1022339213    1.6311324595
H        4.8659651393   -4.2075548925    3.2271018430
H        3.1010452245   -4.0780890671    3.1116318708
H        4.1109621932   -1.9077136450    3.7616374586
H        6.1928348735   -2.3000837587    2.5135992909
H        5.5752305182   -0.8153903551    2.2114019540
22   
Generated by ForceBalance from scan.xyz: Frame 20 of 24
C        1.9356445543   -0.8899286875   -0.1065689187
C        0.7956354157   -0.4497622910    0.5762416584
C        3.0106163684   -1.4414527740    0.5922184116
C        0.7440837809   -0.5591373930    1.9646313040
C        2.9760811290   -1.5946298883    1.9865383427
C        1.8263347897   -1.1300169168    2.6356825151
C        4.0458556683   -3.7696295024    2.6446938014
C        4.1510654065   -2.2385980798    2.7115614432
N        5.4075424180   -1.8168505673    2.0644360335
N        1.6868616134   -1.2715010610    4.0970446741
O        1.7517114399   -2.4108454473    4.5721326090
O        1.4722786466   -0.2452793022    4.7489470757
H        1.9882544214   -0.7972857018   -1.1881073061
H       -0.0423573538   -0.0196821935    0.0354148321
H        3.9084788849   -1.7581423480    0.0715383274
H       -0.1141838339   -0.2096025170    2.5296388310
H        4.0893327448   -4.1040135806    1.6036884989
H        4.8767110784   -4.2307925309    3.1913061887
H        3.1104644058   -4.1086742541    3.0932818540
H        4.1144605136   -1.9468745475    3.7698439514
H        6.1864555389   -2.3094558697    2.4988750361
H        5.5629070442   -0.8223096143    2.2250125187
22   
Generated by ForceBalance from scan.xyz: Frame 21 of 24
C        1.9443856217   -0.8806184532   -0.0997340262
C        0.8064704471   -0.4262815963    0.5773952378
C        3.0078400042   -1.4431223274    0.6064279042
C        0.7478727358   -0.5364997513    1.9637581566
C        2.9690230033   -1.6001757638    2.0010031738
C        1.8156709101   -1.1271700610    2.6462727968
C        4.0406758192   -3.7779984420    2.6470773522
C        4.1548778727   -2.2472522405    2.7089002809
N        5.4017996675   -1.8357971836    2.0342177355
N        1.6511300795   -1.2538220829    4.1040045952
O        1.9601923768   -2.3293976456    4.6320770758
O        1.1787204628   -0.2860047271    4.7099927639
H        2.0049654924   -0.7898390860   -1.1811126022
H       -0.0235938011    0.0144339271    0.0330004990
H        3.9061926286   -1.7658231617    0.0907489553
H       -0.1075025880   -0.1775886261    2.5258828226
H        4.0641103327   -4.1151498830    1.6062541607
H        4.8792588910   -4.2414618135    3.1797344636
H        3.1128885551   -4.1117393637    3.1143627734
H        4.1415057869   -1.9539470087    3.7651320271
H        6.1842018958   -2.3361401015    2.4533347620
H        5.5702193707   -0.8432525032    2.1944588971
22   
Generated by ForceBalance from scan.xyz: Frame 22 of 24
C        1.9535683190   -0.8618041047   -0.0838578695
C        0.8092508330   -0.4134469373    0.5858008758
C        3.0073219452   -1.4338781238    0.6276811342
C        0.7335629377   -0.5495622263    1.9676751936
C        2.9570967401   -1.6094605870    2.0204394693
C        1.7875114016   -1.1576093803    2.6610937428
C        4.0208941299   -3.7837992697    2.6928428970
C        4.1557154171   -2.2533136561    2.7141724025
N        5.3910061659   -1.8770053290    1.9978201847
N        1.5954254477   -1.2885795924    4.1157834613
O        2.1317732511   -2.2421048935    4.6956816852
O        0.8914896273   -0.4430256191    4.6801218705
H        2.0280057373   -0.7576701305   -1.1632403316
H       -0.0124366014    0.0401775573    0.0393112576
H        3.9119749774   -1.7488525399    0.1188295794
H       -0.1294951471   -0.2025142863    2.5238523017
H        4.0216507260   -4.1465319259    1.6602626109
H        4.8625047397   -4.2445864714    3.2229660866
H        3.0982091269   -4.0953901863    3.1844482241
H        4.1739485016   -1.9331694770    3.7607049429
H        6.1710373902   -2.4003251599    2.3923100016
H        5.5937111624   -0.8902393620    2.1538597233
22   
Generated by ForceBalance from scan.xyz: Frame 23 of 24
C        1.9762999479   -0.8125200462   -0.0843428761
C        0.8247926821   -0.3817584057    0.5828539737
C        3.0244056838   -1.3937475309    0.6273804188
C        0.7358586240   -0.5544847419    1.9590462323
C        2.9693744773   -1.5931128331    2.0173694013
C        1.7832461609   -1.1718742830    2.6573016392
C        4.0021787799   -3.7661169472    2.7430896660
C        4.1781913952   -2.2399933026    2.6948488006
N        5.3995979737   -1.9313385987    1.9232160334
N        1.5671995275   -1.3193355978    4.1104698310
O        2.2995558888   -2.0911153281    4.7438232294
O        0.6594602980   -0.6590500377    4.6298352703
H        2.0619937335   -0.6878928883   -1.1607837809
H        0.0070501511    0.0831345058    0.0399263306
H        3.9319809849   -1.7011109954    0.1197734988
H       -0.1376936387   -0.2306084732    2.5112048973
H        3.9524264632   -4.1696537064    1.7269634773
H        4.8518149675   -4.2281944465    3.2590251493
H        3.0929812021   -4.0347874551    3.2828834330
H        4.2417790445   -1.8749504818    3.7231324128
H        6.1742871297   -2.4650720667    2.3141771763
H        5.6393620768   -0.9471123849    2.0386447350
22   
Generated by ForceBalance from scan.xyz: Frame 24 of 24
C        1.9944998054   -0.7538881501   -0.0804024707
C        0.8290973148   -0.3647102119    0.5862187457
C        3.0461626745   -1.3354550066    0.6262420850
C        0.7293821537   -0.5818660850    1.9553415858
C        2.9884044284   -1.5645446412    2.0114505936
C        1.7856381574   -1.1859450201    2.6526284136
C        3.9659929740   -3.7374098834    2.8114482905
C        4.1996529834   -2.2238641411    2.6765453937
N        5.4057286268   -2.0078010926    1.8506778790
N        1.5502261488   -1.3712935877    4.1018093308
O        2.4337640397   -1.8976414540    4.7906211773
O        0.4726283838   -0.9821722873    4.5671434700
H        2.0881807294   -0.6006477409   -1.1525234179
H        0.0072594141    0.0996884112    0.0490977194
H        3.9566703199   -1.6281324546    0.1158842966
H       -0.1599052083   -0.2992001525    2.5041644248
H        3.8635543029   -4.1898370517    1.8201678457
H        4.8145840423   -4.2066605516    3.3224482246
H        3.0680878852   -3.9454017603    3.3955297485
H        4.3142951640   -1.8070192736    3.6789579340
H        6.1632906358   -2.5714565513    2.2329563016
H        5.7041210382   -1.0358834724    1.9288086722
