31

C     -2.15547    1.95263   -3.33467
C     -1.30350   -0.14649   -4.21952
C     -3.30892    1.81323   -4.11132
C     -2.45510   -0.29252   -4.99452
C     -1.17248    0.96664   -3.38512
C     -3.44917    0.68972   -4.92901
C      1.24864   -0.50793   -0.43247
C     -1.22662   -0.21833    1.18212
C     -0.38810    0.73608    2.05286
C     -1.30874    0.23218   -0.28771
C      0.85570    1.26241    1.32281
C     -0.07433   -0.15116   -1.12558
N      1.62240    0.20042    0.66643
O      1.94355   -1.41136   -0.90273
O      0.14382    2.52784   -1.66390
S      0.33015    1.20014   -2.38310
Cl    -4.89602    0.50934   -5.90342
H     -2.00436    2.81589   -2.69223
H     -0.52013   -0.89942   -4.27297
H     -4.08859    2.56803   -4.08479
H     -2.57906   -1.15209   -5.64541
H     -0.81655   -1.23313    1.23430
H     -2.23938   -0.27985    1.59401
H     -0.99415    1.60538    2.33678
H     -0.10056    0.22907    2.98103
H     -2.18237   -0.21743   -0.76674
H     -1.45584    1.31742   -0.32297
H      0.57838    2.00768    0.57452
H      1.52914    1.76007    2.02503
H     -0.27524   -1.02648   -1.74470
H      2.48966   -0.11864    1.08249
