31

C     -1.66502    1.31030    3.68616
C     -3.10408   -0.15522    2.38022
C     -2.04956    0.65253    4.85692
C     -3.49027   -0.81527    3.54945
C     -2.17979    0.89012    2.45913
C     -2.95498   -0.40817    4.77442
C     -0.92144   -0.58834   -0.17261
C      2.05788    0.78113   -0.55147
C      2.13980   -0.66973   -1.04429
C      0.64970    1.39271   -0.50020
C      1.36277   -1.67667   -0.18401
C     -0.29544    0.64747    0.45334
N     -0.08885   -1.64488   -0.38044
O     -2.11370   -0.62588   -0.49126
O     -0.90055    3.03652    1.51120
S     -1.66481    1.83202    0.97929
Cl    -3.44277   -1.23875    6.24281
H     -0.98480    2.15776    3.71004
H     -3.50366   -0.46234    1.41962
H     -1.65996    0.96351    5.82127
H     -4.20273   -1.63322    3.51040
H      2.50035    0.84128    0.45187
H      2.68066    1.40956   -1.19808
H      1.78292   -0.74282   -2.07896
H      3.19314   -0.97506   -1.04921
H      0.73335    2.42314   -0.14027
H      0.20567    1.42849   -1.50212
H      1.68035   -2.69294   -0.42936
H      1.59661   -1.52592    0.87741
H      0.23308    0.40194    1.38088
H     -0.53017   -2.42363   -0.85695
