61

C      2.52173    4.02513    0.30898
C     -2.88651    1.67038    8.79368
C      3.53141    4.68090   -0.39092
C     -2.12855    1.49827    7.63337
C      2.44365    5.88763    1.85356
C     -4.15187    1.33688    6.28884
C      1.97392    4.62779    1.45121
C     -4.28361    1.70021    8.70270
C     -4.89857    1.51687    7.46023
C      4.02445    5.93268    0.00382
C      3.45426    6.55010    1.14348
C     -2.75476    1.34106    6.38729
C     -0.56112    2.59026    2.97227
C     -0.55784    3.68453    3.79735
C      0.92639    3.94303    2.20126
C     -3.87062    2.67082   11.87645
C     -6.40563    1.49927    7.61549
C     -6.61128    2.14909    9.00473
C     -5.30737    1.88265    9.80966
C      5.16618    6.56689   -0.75327
C     -1.24993    4.13123    5.04148
C      3.78718    8.13928    2.98041
C      3.52623    8.93959    0.71974
C     -1.34836    1.31014    2.98662
C     -4.99848    2.97988   10.83439
C     -2.47649    1.22703    4.00307
N      0.38758    2.77859    1.96483
N      3.95032    7.82213    1.56575
O     -3.36490    1.50963   11.83719
O     -3.60149    3.62744   12.65031
O      0.40096    4.55792    3.30112
O     -1.90248    1.20664    5.30091
H      2.16157    3.04963   -0.00161
H     -2.42323    1.76309    9.77208
H      3.97376    4.19737   -1.25989
H     -1.04189    1.47993    7.67076
H      2.00472    6.34635    2.73161
H     -4.65520    1.19258    5.33734
H     -6.93155    2.02440    6.80828
H     -6.76673    0.46028    7.61026
H     -6.72908    3.23275    8.87867
H     -7.50464    1.78099    9.52095
H     -5.38251    0.93518   10.35903
H      4.81308    7.22542   -1.55743
H      5.78418    7.17175   -0.08380
H      5.79249    5.79970   -1.21845
H     -0.77336    3.71969    5.93636
H     -1.21979    5.22264    5.10402
H     -2.29212    3.81400    5.06557
H      4.41015    9.00803    3.21881
H      4.12339    7.29845    3.59182
H      2.74934    8.38561    3.26497
H      4.11201    9.83073    0.97124
H      2.45618    9.17823    0.85207
H      3.69213    8.71017   -0.33355
H     -1.77083    1.16030    1.98555
H     -0.65779    0.47532    3.15608
H     -5.91006    3.19486   11.40928
H     -4.74445    3.91411   10.31627
H     -3.15909    2.08145    3.89428
H     -3.06217    0.31238    3.83123
