65

C     -6.66098   -7.67129    9.11868
C     -6.92371   -6.38123    8.59260
C      6.75114    2.80554   -0.88251
C      7.65125    1.73677   -0.71349
C     -5.43359   -8.26805    8.90851
C     -5.95634   -5.71366    7.86769
C      5.46124    2.74366   -0.35054
C      2.57928    1.77636    1.18516
C      7.28643    0.58634   -0.00737
C      1.58692    1.08073    1.86445
C     -3.14831   -8.19351    7.92384
C     -3.66875   -5.63319    6.89540
C      3.08525   -0.82509    2.22738
C     -4.42068   -7.60501    8.16593
C     -4.68458   -6.30347    7.63498
C      5.06964    1.59990    0.35668
C      3.84164    1.18978    1.01028
C      5.99604    0.53326    0.52669
C      4.07436   -0.10239    1.54571
C      1.83611   -0.21183    2.38099
C     -2.17870   -7.53591    7.20655
C     -2.43819   -6.22281    6.68601
C      6.07046   -4.15328    0.52969
C     -0.64002   -8.54706    5.71151
C      5.59938   -2.72798    0.29209
C     -0.35621   -2.50963    4.23219
C     -0.27113   -3.91876    4.82819
C      5.92721   -1.80565    1.47452
C      0.95276   -2.10044    3.57328
C     -1.57240   -4.32699    5.50246
N      5.38857   -0.47672    1.27671
O      6.54347   -4.55204    1.56864
O      5.91644   -5.00732   -0.52429
O     -0.94079   -8.11524    7.04655
O      0.77646   -0.79402    3.02463
O     -1.39647   -5.64987    6.01268
H     -7.42908   -8.18748    9.68855
H     -7.89196   -5.91773    8.76344
H      7.06583    3.68656   -1.43502
H      8.64956    1.80508   -1.13735
H     -5.22763   -9.25719    9.31133
H     -6.15971   -4.72321    7.46624
H      4.77021    3.57174   -0.48748
H      2.37075    2.76775    0.79121
H      7.99290   -0.22934    0.12036
H      0.59996    1.50731    2.01368
H     -2.91798   -9.18104    8.31508
H     -3.88262   -4.64174    6.51117
H      3.28727   -1.81195    2.62529
H      0.35105   -9.00282    5.75698
H     -0.62556   -7.70383    5.01473
H     -1.37174   -9.29356    5.37726
H      4.51494   -2.73875    0.12526
H      6.05197   -2.33229   -0.62518
H     -1.15618   -2.45866    3.48442
H     -0.60055   -1.77845    5.01145
H      0.53739   -3.97525    5.56604
H     -0.03804   -4.64910    4.04428
H      7.00802   -1.73934    1.61379
H      5.52670   -2.22568    2.39861
H      1.76877   -2.09113    4.30900
H      1.22030   -2.80756    2.77526
H     -2.40481   -4.31090    4.78543
H     -1.81660   -3.64173    6.32539
H      5.53044   -4.53571   -1.28236
