63

C      4.73235    1.25004    1.17260
C      3.33461    0.85024    3.09802
C      5.64759    0.29589    1.62563
C      4.23690   -0.10592    3.55562
C      2.40343    5.12827    4.13848
C      0.66247    3.27179    2.95512
C      0.23360    4.03947    4.07684
C      3.57136    1.53777    1.89823
C      5.39701   -0.38204    2.81915
C      2.85346    4.35657    3.07233
C      1.97732    3.41234    2.46792
C      1.11607    4.97956    4.64656
C     -1.32722    2.82205    1.50452
C     -0.34979    2.39099    2.30869
C     -1.10990    3.90435    4.70229
C     -2.27056    1.71017    1.10955
C     -0.47719    0.90668    2.59327
C     -1.50700    5.09618    5.55809
C     -1.49445    0.43510    1.52712
C     -0.85332    5.34673    8.58811
C     -0.10255    4.39790    7.61100
C     -0.66385    6.50021    7.56112
C     -0.35141    5.44322    6.48445
C      5.28230    4.08286    3.72015
C      4.57449    6.03555    2.25076
C      2.56918    2.55190    1.35015
C      4.30232    4.56961    2.63545
C      6.36655   -1.40357    3.34962
O     -1.83576    2.92205    4.61329
O      0.80190    5.79068    5.70119
O      1.56470    1.87108    0.59487
F      7.41018   -1.61318    2.51265
F      6.88787   -1.02762    4.54852
F      5.76965   -2.60736    3.55357
H      4.93605    1.78843    0.24889
H      2.44964    1.07965    3.68234
H      6.54881    0.08679    1.05892
H      4.04692   -0.63196    4.48700
H      3.05283    5.85258    4.61905
H     -1.46794    3.85886    1.20821
H     -3.21685    1.80646    1.66176
H     -2.52229    1.71630    0.04227
H      0.47740    0.37832    2.51425
H     -0.85778    0.76980    3.61280
H     -1.72108    5.95928    4.91430
H     -2.40725    4.84229    6.12132
H     -2.14997   -0.36099    1.89229
H     -0.94975    0.04686    0.66025
H     -0.40890    5.48987    9.57533
H     -1.90275    5.06770    8.71300
H      0.96439    4.33370    7.83973
H     -0.50443    3.39274    7.45884
H     -1.50678    7.16943    7.36672
H      0.22927    7.09387    7.77338
H      5.17455    4.66441    4.64151
H      6.31570    4.18926    3.37266
H      5.11149    3.03038    3.96315
H      4.47607    6.70826    3.10818
H      3.87884    6.37615    1.47704
H      5.59456    6.13950    1.86509
H      3.10834    3.21433    0.66124
H      4.50665    3.97577    1.74588
H      2.02012    1.20707    0.05209
