23   

C       -4.8396786542   -6.8726049174   -2.0227348585
C        1.2448638403   -4.8178429629    3.1690811723
C       -3.3355728355   -4.8946904544   -1.4716640763
C        1.0687231249   -5.3724290042    1.9412523508
C       -3.7733086978   -6.5056955351    0.1792863537
C       -4.0133634545   -6.1338649375   -1.1177026863
C       -2.5758945630   -4.3762083332   -0.4440670977
C        0.7218925718   -3.4990143280    3.4338612786
C       -0.1368161202   -3.3637157148    1.3069618887
C       -1.8558197225   -3.1092718631   -0.4969829350
C       -0.8855133087   -2.6259284124    0.3053439557
N       -5.5076592576   -7.4764818214   -2.7611977471
N        0.0396735910   -2.8014334827    2.4635908029
N        0.3727722431   -4.6248843526    0.9922014176
O        0.8730789161   -3.0046967701    4.5376468088
S       -2.7159300467   -5.3751128275    1.0130759503
H        1.7676059211   -5.3284510933    3.9653942114
H       -3.4332581769   -4.4289457694   -2.4468893770
H        1.4603191743   -6.3638242123    1.7249674408
H       -4.1877865634   -7.3928460927    0.6445873475
H       -2.1554130406   -2.4462768895   -1.3024934290
H       -0.7001971131   -1.5592325727    0.2909261278
H        0.1892160773   -4.9710076168    0.0576100375
23   

C       -4.5228390240   -7.0162339458   -1.9715293396
C        1.3194466088   -4.8922503941    3.0939548957
C       -3.1738407547   -4.9317808196   -1.4118557403
C        0.9535854062   -5.4573665939    1.9138958032
C       -3.8232512329   -6.3840011891    0.3162270295
C       -3.8674431782   -6.1555132598   -1.0349365616
C       -2.6029852662   -4.2822133003   -0.3396613593
C        0.9604104840   -3.5209867930    3.3654248130
C       -0.1089678514   -3.3515416621    1.3382483133
C       -1.8925396744   -3.0039293597   -0.3854846690
C       -0.8861604128   -2.5637883956    0.3957690864
N       -5.0506534837   -7.7195631061   -2.7349424794
N        0.2481547701   -2.7817647767    2.4487845393
N        0.2332560265   -4.6671916519    1.0195613572
O        1.2787701715   -3.0172860667    4.4286921382
S       -2.9379005226   -5.1323587204    1.1779848482
H        1.8751532067   -5.4329522474    3.8468695372
H       -3.1239188488   -4.5720817976   -2.4345397689
H        1.2188393971   -6.4886877668    1.6924735204
H       -4.2828237037   -7.2360492601    0.8044069979
H       -2.2037520650   -2.3262736837   -1.1742716179
H       -0.6739150169   -1.5019139784    0.4014381208
H       -0.0942608817   -5.0186378528    0.1269501261
23   

C       -4.2282506845   -7.1190922535   -2.0250249158
C        1.2576024052   -5.1056840097    3.0552271876
C       -3.0406647212   -4.9613266818   -1.3832767003
C        0.7177888535   -5.6378419327    1.9279797160
C       -3.9489031482   -6.3233522842    0.3015813261
C       -3.7635195584   -6.1807675873   -1.0497583393
C       -2.6858893365   -4.2274822960   -0.2751960064
C        1.0647142491   -3.7041668880    3.3404108387
C       -0.1811371217   -3.4375711905    1.4265774142
C       -1.9832621180   -2.9375394695   -0.2452337877
C       -0.9595047789   -2.5737040771    0.5508525503
N       -4.5999232406   -7.8857940278   -2.8186999252
N        0.3401527263   -2.9019813562    2.4884070175
N       -0.0083304674   -4.7841050225    1.0995658666
O        1.5394174952   -3.2285372470    4.3573267040
S       -3.2528127958   -4.9926207213    1.2173605428
H        1.8323540198   -5.6950193877    3.7554711957
H       -2.8148813587   -4.6659607976   -2.4030398356
H        0.8551284232   -6.6916763412    1.6964620575
H       -4.4683770946   -7.1577258301    0.7595164570
H       -2.2952023961   -2.2097887752   -0.9878084637
H       -0.7124143011   -1.5208818594    0.6098047722
H       -0.4621102167   -5.1058726263    0.2516920026
23   

C       -3.9333274456   -7.2305889655   -2.0033874579
C        1.2346368477   -5.2063824125    2.9790709510
C       -2.8995899590   -5.0004519707   -1.3428390895
C        0.5453435320   -5.7244234834    1.9296292827
C       -4.0413629105   -6.2664327768    0.2734761705
C       -3.6461049166   -6.2132988038   -1.0389261103
C       -2.7462589441   -4.1799471092   -0.2514413885
C        1.1777572311   -3.7869128099    3.2327931513
C       -0.2236866045   -3.4724446279    1.4362857799
C       -2.0581094473   -2.8783394278   -0.1748922471
C       -1.0065030573   -2.5665569438    0.6048532534
N       -4.1599013901   -8.0617180865   -2.7867228403
N        0.4381403093   -2.9526766812    2.4255022608
N       -0.1925300892   -4.8383588352    1.1471500173
O        1.7857941244   -3.3227789539    4.1818110070
S       -3.5228786698   -4.8554289625    1.1873007724
H        1.8306444708   -5.8201651934    3.6393705544
H       -2.5115169591   -4.7728218951   -2.3308645539
H        0.5780096698   -6.7916296962    1.7221366190
H       -4.6129032399   -7.0812807479    0.7039563361
H       -2.4007796692   -2.1113039470   -0.8623919148
H       -0.7242812268   -1.5233842344    0.6778955842
H       -0.7503042863   -5.1454507566    0.3574544595
23   

C       -3.6704567417   -7.2728033575   -1.9714263928
C        1.2182283510   -5.2202697106    2.9347489962
C       -2.7765390183   -4.9948424775   -1.2708717584
C        0.3847316774   -5.7327636796    1.9928116000
C       -4.1752516941   -6.1849085731    0.1936862854
C       -3.5590998008   -6.1993102189   -1.0318625844
C       -2.8224693223   -4.1126633279   -0.2195892088
C        1.2831626716   -3.7908743138    3.1204926221
C       -0.2784516385   -3.4544718548    1.4642424558
C       -2.1545817800   -2.8016113928   -0.0838936948
C       -1.0762537401   -2.5252193828    0.6711194538
N       -3.7542821273   -8.1499364410   -2.7324737241
N        0.5185465225   -2.9419909896    2.3528355441
N       -0.3744748054   -4.8310924503    1.2495451934
O        2.0217696872   -3.3299605051    3.9736541125
S       -3.8293672087   -4.7176137963    1.1009181223
H        1.8419240293   -5.8456115328    3.5575398753
H       -2.2203878044   -4.8170446871   -2.1864273914
H        0.3241187482   -6.8075225539    1.8370728673
H       -4.8091801179   -6.9827445235    0.5648125464
H       -2.5546604880   -1.9916218953   -0.6858637657
H       -0.7701853963   -1.4888377857    0.7464693552
H       -1.0261698628   -5.1314781775    0.5322869049
23   

C       -3.4694076843   -7.3206297012   -1.9299181662
C        1.2408639315   -5.2510578050    2.8713588087
C       -2.6725533988   -5.0250371743   -1.1718906399
C        0.2715428734   -5.7558733651    2.0649520789
C       -4.3526430706   -6.1228787350    0.0478656750
C       -3.5138595010   -6.2053371987   -1.0345277256
C       -2.8957445726   -4.0950196936   -0.1864710050
C        1.4128734216   -3.8215567570    2.9616119496
C       -0.3093439874   -3.4699520850    1.4755558007
C       -2.2448063262   -2.7825088333    0.0095313721
C       -1.1350841041   -2.5282283785    0.7258710696
N       -3.4280873565   -8.2321212682   -2.6530912294
N        0.6150202993   -2.9659225114    2.2367870521
N       -0.5157094857   -4.8463170135    1.3612048471
O        2.2751365276   -3.3658983950    3.6929395839
S       -4.1521748853   -4.6187341637    0.9388011478
H        1.8960567751   -5.8825528395    3.4543155053
H       -1.9511488307   -4.8957063776   -1.9734648542
H        0.1287425105   -6.8309664442    1.9825482096
H       -5.0645646686   -6.8927440587    0.3248433580
H       -2.7247499472   -1.9339018121   -0.4680836973
H       -0.8142411076   -1.4958373635    0.7957061526
H       -1.2588627243   -5.1411529541    0.7366134235
23   

C       -3.7551957062   -7.7365251173   -0.6902386629
C        1.0851012637   -4.9767516682    3.3214699224
C       -2.5894590470   -5.4736829018   -0.6759292652
C       -0.0744153965   -5.4539377450    2.7991483478
C       -4.7086634584   -5.6847492268    0.3132056570
C       -3.7075293542   -6.3473361332   -0.3504542752
C       -2.7725535376   -4.1859538662   -0.2321593216
C        1.6379126857   -3.7464255219    2.8101498800
C       -0.0988936892   -3.5290470172    1.3150706134
C       -1.8844894846   -3.0202834267   -0.3997262297
C       -0.7333249351   -2.7612427496    0.2483604353
N       -3.7925849984   -8.8688524363   -0.9584489288
N        1.0095393869   -3.0551534107    1.7997715387
N       -0.6738824808   -4.7122465452    1.7825435573
O        2.6752025952   -3.3127098536    3.2812443533
S       -4.3320184492   -3.9852555905    0.5713312690
H        1.6169024478   -5.4859875209    4.1125349741
H       -1.7105590166   -5.8056847866   -1.2212906237
H       -0.5048252477   -6.3809393409    3.1711857574
H       -5.6321548983   -6.1502530601    0.6398472314
H       -2.2359267900   -2.2523593788   -1.0819545263
H       -0.2009531911   -1.8597212670   -0.0302348869
H       -1.5366039011   -5.0030300927    1.3349305331
23   

C       -3.6029597761   -7.7541976699   -0.5877369377
C        1.0941269588   -5.0337800386    3.2812438614
C       -2.5249155558   -5.4493830146   -0.5191816932
C       -0.1517571753   -5.4057298632    2.8879167158
C       -4.7920466998   -5.6783199230    0.0460963109
C       -3.6613818411   -6.3437292666   -0.3538328859
C       -2.8244022789   -4.1413877275   -0.2150606391
C        1.7082852907   -3.8739705004    2.6827071949
C       -0.1377584291   -3.5210707816    1.3537986668
C       -1.9631928950   -2.9534870915   -0.3040592833
C       -0.7985019569   -2.7169289226    0.3317428923
N       -3.5565606287   -8.9034295027   -0.7684621307
N        1.0513446260   -3.1451762199    1.7180345900
N       -0.7755174899   -4.6300935742    1.9118103859
O        2.8246383230   -3.5354299911    3.0364464684
S       -4.5195549282   -3.9509316225    0.2421487898
H        1.6508623899   -5.5764117071    4.0319458470
H       -1.5483433105   -5.7817633211   -0.8602320236
H       -0.6294996836   -6.2782621374    3.3277805167
H       -5.7491897459   -6.1578555221    0.2194229568
H       -2.3546480065   -2.1327328399   -0.8971830916
H       -0.2640464943   -1.8140372812    0.0616928032
H       -1.7003606847   -4.8464005933    1.5552944342
23   

C       -3.4685936275   -7.7663320821   -0.4758517597
C        1.0867936061   -5.0762103344    3.2447449185
C       -2.4823082770   -5.4226054995   -0.3641021240
C       -0.2203482795   -5.3405340038    2.9859124231
C       -4.8085478846   -5.7018738949   -0.2189290521
C       -3.6062945652   -6.3472534552   -0.3543432413
C       -2.8655498282   -4.1085318843   -0.2097524275
C        1.7386185410   -3.9884483338    2.5572149286
C       -0.1899526253   -3.4997131384    1.4005905196
C       -2.0469325253   -2.8938293911   -0.2077348503
C       -0.8758102927   -2.6647782064    0.4223335443
N       -3.3603651874   -8.9222398675   -0.5642139874
N        1.0565233272   -3.2230067454    1.6395250747
N       -0.8672232026   -4.5304072637    2.0536805330
O        2.9104449214   -3.7466478575    2.7901258984
S       -4.6216913161   -3.9569269367   -0.0923767167
H        1.6655198985   -5.6532049911    3.9519714377
H       -1.4518374995   -5.7408076728   -0.4964722857
H       -0.7270371820   -6.1574809221    3.4948033432
H       -5.7684901310   -6.2057492672   -0.1949990127
H       -2.4690143270   -2.0442531400   -0.7356817320
H       -0.3459247848   -1.7559285782    0.1637721802
H       -1.8362244142   -4.6733361849    1.7896702536
23   

C       -3.3752747499   -7.7451784969   -0.3911454240
C        1.0752967801   -5.1311363387    3.2317920568
C       -2.4412403317   -5.3836753447   -0.2239680427
C       -0.2691093192   -5.2749539744    3.0993290137
C       -4.7514783590   -5.6921054925   -0.5022442354
C       -3.5416840044   -6.3240668152   -0.3755235752
C       -2.8520739020   -4.0671543493   -0.2180395087
C        1.7588215158   -4.1201938398    2.4623118257
C       -0.2127951877   -3.4778677216    1.4662565112
C       -2.0786683971   -2.8324699897   -0.1094899704
C       -0.9083155720   -2.6098224394    0.5268110390
N       -3.2461605916   -8.9023752683   -0.3931519223
N        1.0694593361   -3.3118042285    1.5878031367
N       -0.9217870385   -4.4229261425    2.2093280843
O        2.9641697518   -3.9854467718    2.5837067582
S       -4.6012299226   -3.9407000896   -0.4369043784
H        1.6610506372   -5.7493226545    3.8972450446
H       -1.4042165123   -5.6980397954   -0.1472548825
H       -0.7997014974   -6.0323594139    3.6720486885
H       -5.6958706357   -6.2092162207   -0.6305769999
H       -2.5181872355   -1.9635152617   -0.5894539431
H       -0.3789663930   -1.6956644006    0.2871272413
H       -1.9190543393   -4.4818708079    2.0344550701
23   

C       -3.3552944784   -7.7593603781   -0.2896249807
C        1.1120962395   -5.1185312546    3.1724664358
C       -2.4615479542   -5.3848054074   -0.0935134659
C       -0.2449353441   -5.1858672206    3.1733798825
C       -4.6903898231   -5.7274865813   -0.7452418479
C       -3.5206944739   -6.3409581179   -0.3806612914
C       -2.8626177378   -4.0713657039   -0.2335140624
C        1.7741874217   -4.1669436493    2.3135055651
C       -0.2443428415   -3.4402939067    1.4856558894
C       -2.1511503952   -2.8123542944   -0.0390065839
C       -0.9804318030   -2.5647851851    0.5881849028
N       -3.2284604734   -8.9137714749   -0.2049547514
N        1.0504050786   -3.3433311271    1.4822054268
N       -0.9321588391   -4.3185760261    2.3247450669
O        2.9910874312   -4.0977538118    2.3190312455
S       -4.5510090976   -3.9746215185   -0.7499186130
H        1.7238586098   -5.7545127187    3.7965179970
H       -1.4560550128   -5.6954711066    0.1726386387
H       -0.7589017461   -5.8969512869    3.8163844527
H       -5.5997179486   -6.2584511325   -1.0036042486
H       -2.6229700671   -1.9418783104   -0.4842540530
H       -0.4775443040   -1.6337356469    0.3573871084
H       -1.9435896381   -4.3179030081    2.2538993841
23   

C       -4.2477828316   -7.2419909812    1.0210133894
C        1.1405188313   -4.9920600185    3.1332600148
C       -2.8716326808   -5.1600315869    0.5250979608
C        0.8166582164   -5.5764060556    1.9499967124
C       -4.6215175625   -5.7575056457   -0.9213260401
C       -3.9433237393   -6.0964735373    0.2193548011
C       -2.7604361569   -4.1385743421   -0.3980093149
C        0.8368098858   -3.5969847366    3.3424167482
C       -0.1176081916   -3.4461965728    1.2568608188
C       -1.8372076573   -3.0165727477   -0.5262728872
C       -0.7948012423   -2.6493256930    0.2501564303
N       -4.4898828849   -8.1820254869    1.6642940117
N        0.2037430104   -2.8589022162    2.3690014463
N        0.1906272887   -4.7814109316    0.9901364505
O        1.1395279719   -3.0680593787    4.3979674959
S       -3.9854327165   -4.2970497322   -1.6643875483
H        1.6244325835   -5.5340688555    3.9334425540
H       -2.2621451572   -5.2632770927    1.4155802212
H        1.0426394121   -6.6262441822    1.7765866616
H       -5.4560247691   -6.3215152798   -1.3223817387
H       -2.0600322956   -2.3288967740   -1.3361775389
H       -0.4686192271   -1.6181090209    0.1977200004
H       -0.0856487392   -5.1424774019    0.0841952845
23   

C       -4.3456619732   -7.2065977139    1.0165555835
C        1.1492105173   -5.1448873983    3.1447508381
C       -2.9887915372   -5.0920913774    0.6121712844
C        0.6616519273   -5.7019878731    2.0054471325
C       -4.4364275771   -5.8709576304   -1.0634534922
C       -3.9524864540   -6.1010213702    0.1976392802
C       -2.7571932226   -4.1329223614   -0.3532039301
C        0.9868187515   -3.7286310907    3.3672613332
C       -0.1471222594   -3.4997271878    1.3798772778
C       -1.8789630934   -2.9677805115   -0.3733213505
C       -0.8476421005   -2.6432061208    0.4367715884
N       -4.6591725016   -8.1144070861    1.6749726380
N        0.3278744659   -2.9411135076    2.4513854119
N        0.0162315190   -4.8579515422    1.1022745430
O        1.4326701676   -3.2251778654    4.3838332004
S       -3.7406983602   -4.4298929202   -1.7923618355
H        1.6608810935   -5.7246440657    3.8998942394
H       -2.5330541855   -5.0952817931    1.5973911158
H        0.7774346956   -6.7679905067    1.8224544628
H       -5.1661642588   -6.5019208316   -1.5583497866
H       -2.0998818399   -2.2368151717   -1.1449904346
H       -0.5303249089   -1.6077566935    0.4502510629
H       -0.3895964262   -5.1980471701    0.2376029032
23   

C       -4.4319935111   -7.1520063496    1.0106449982
C        1.1812201797   -5.1949262754    3.1099775187
C       -3.0935323135   -5.0179580772    0.6481615753
C        0.5562856500   -5.7427234412    2.0352557023
C       -4.2338300594   -5.9844290879   -1.1616646021
C       -3.9476488723   -6.0969027705    0.1741881313
C       -2.7394096104   -4.1317516525   -0.3474070289
C        1.1245361213   -3.7674214239    3.3108080818
C       -0.1677141603   -3.5057810503    1.4257031757
C       -1.9239268504   -2.9207490960   -0.2930981808
C       -0.8934295161   -2.6200102662    0.5264911410
N       -4.8192843381   -8.0187556801    1.6848332186
N        0.4349527753   -2.9581072499    2.4373224853
N       -0.1178521992   -4.8777291510    1.1742346988
O        1.6893838282   -3.2729593114    4.2711267565
S       -3.4762529649   -4.5745954691   -1.8915427290
H        1.7255084668   -5.7905137698    3.8290850296
H       -2.7913041944   -4.9190439468    1.6869124689
H        0.5891962542   -6.8172354024    1.8693008594
H       -4.8576451413   -6.6818610497   -1.7095639957
H       -2.1653056075   -2.1628207050   -1.0319516501
H       -0.5808562111   -1.5838534251    0.5714338587
H       -0.6299866286   -5.2090725094    0.3639716761
23   

C       -4.5630858872   -7.1271198574    0.9421633006
C        1.2296043678   -5.2057817887    3.0988352979
C       -3.2334060344   -4.9750175438    0.6618855109
C        0.4529746306   -5.7562879980    2.1296712413
C       -4.0184232824   -6.1006296842   -1.2426057145
C       -3.9654645693   -6.1138458306    0.1275248027
C       -2.7324729784   -4.1487683126   -0.3200279454
C        1.2807971479   -3.7706223240    3.2347933220
C       -0.1947940758   -3.5040080709    1.4890503335
C       -1.9857242357   -2.8952032933   -0.1915814842
C       -0.9538577988   -2.6053614509    0.6283814100
N       -5.0421165804   -7.9590969006    1.6009401790
N        0.5483559013   -2.9556725015    2.4025191242
N       -0.2625006728   -4.8861311354    1.3082412550
O        1.9798923257   -3.2736923084    4.1009460959
S       -3.1802287055   -4.7157939368   -1.9321252602
H        1.8172994106   -5.8045563270    3.7800844746
H       -3.1127066164   -4.7922089105    1.7261503472
H        0.4022020988   -6.8366044820    2.0137256054
H       -4.5214425376   -6.8547477416   -1.8377781620
H       -2.2609943824   -2.1130207807   -0.8923530891
H       -0.6471218804   -1.5680372984    0.6876935270
H       -0.8794420394   -5.2165145339    0.5738484429
23   

C       -4.6798747977   -7.1500102851    0.8446481856
C        1.2663940926   -5.1187011297    3.0681854725
C       -3.4030798713   -4.9573501548    0.6419725328
C        0.3648483379   -5.6876658110    2.2263002753
C       -3.7674083408   -6.2602102541   -1.2768235084
C       -3.9759992571   -6.1697543291    0.0757522947
C       -2.7580089119   -4.1824417872   -0.2941928628
C        1.3868848739   -3.6819176427    3.1097950041
C       -0.2599184404   -3.4483571687    1.5185976123
C       -2.1036579184   -2.8780463272   -0.1179319999
C       -1.0712571609   -2.5638417472    0.6896178942
N       -5.2452301223   -7.9539429468    1.4688375209
N        0.5986080384   -2.8833899084    2.3133774198
N       -0.4044183432   -4.8341726448    1.4368410163
O        2.1980873808   -3.1685975506    3.8610859191
S       -2.8668686476   -4.8872699313   -1.9097909569
H        1.9041692934   -5.7037103187    3.7154592762
H       -3.4897979802   -4.6897203212    1.6914213427
H        0.2598616570   -6.7693849431    2.1827841917
H       -4.1192273842   -7.0814149613   -1.8916129714
H       -2.4460539640   -2.0876292280   -0.7787465840
H       -0.7898809069   -1.5191317005    0.7461206106
H       -1.1072074671   -5.1779598304    0.7909865325
23   

C       -4.8042474166   -7.1365315015    0.7140476662
C        1.3262737312   -5.0769546389    3.0225419169
C       -3.5629973988   -4.9164579333    0.6134062142
C        0.3049071214   -5.6369137208    2.3237744938
C       -3.5019916761   -6.3561216099   -1.2406631285
C       -3.9818023840   -6.1840803388    0.0328781479
C       -2.7661642862   -4.1809535933   -0.2308747392
C        1.5244768323   -3.6493572436    2.9641258555
C       -0.2791220862   -3.4063619102    1.5545087413
C       -2.1811597213   -2.8446548457   -0.0123259082
C       -1.1349829466   -2.5214048686    0.7707805541
N       -5.4665774289   -7.9165276645    1.2694075460
N        0.6911151895   -2.8499946860    2.2157456696
N       -0.5052942657   -4.7838483224    1.5762270256
O        2.4442315777   -3.1449078886    3.5850876676
S       -2.5245268388   -4.9953541001   -1.7788380157
H        2.0039250634   -5.6625419748    3.6273503335
H       -3.8600449205   -4.5858753470    1.6046611959
H        0.1394421014   -6.7113793032    2.3575213379
H       -3.7035213192   -7.2284595107   -1.8527389546
H       -2.6077760862   -2.0393161723   -0.6023080003
H       -0.8638798562   -1.4739289270    0.8262357153
H       -1.2924227556   -5.1211764002    1.0323164905
23   

C       -4.9088932347   -7.1294916716    0.5618283761
C        1.3770750076   -5.0743194216    2.9617109035
C       -3.7145291590   -4.8816015735    0.5658232904
C        0.2468211157   -5.6031877785    2.4254914742
C       -3.2487221573   -6.4315805512   -1.1361131991
C       -3.9828303207   -6.1953552400   -0.0015298483
C       -2.7823596848   -4.1728936296   -0.1513889512
C        1.6527953694   -3.6690841378    2.7870256970
C       -0.2889092401   -3.3862539915    1.5837828148
C       -2.2549737479   -2.8167435636    0.1081130942
C       -1.1828331683   -2.4930368062    0.8531899286
N       -5.6559472751   -7.8935022626    1.0241060183
N        0.7837832179   -2.8586787707    2.0926650113
N       -0.5940756104   -4.7417891389    1.7232142710
O        2.6716236185   -3.1943104434    3.2587676622
S       -2.2070311682   -5.0767492574   -1.5553279188
H        2.0859986535   -5.6687571779    3.5202582789
H       -4.2060198363   -4.5044420722    1.4579355402
H        0.0212786648   -6.6600135568    2.5490177985
H       -3.3040036976   -7.3464016856   -1.7160171413
H       -2.7864694462   -1.9977658482   -0.3666340932
H       -0.9117546970   -1.4454601043    0.9056118796
H       -1.4582008494   -5.0565110675    1.2947794712
23   

C       -5.0113602315   -7.1115552028    0.3768114322
C        1.4320354138   -5.0576990516    2.9148858300
C       -3.8395716203   -4.8549817108    0.4941284008
C        0.2198505493   -5.5493002527    2.5494428905
C       -3.0558217510   -6.4847937192   -1.0048858292
C       -3.9943128650   -6.1982201477   -0.0462746634
C       -2.7893796781   -4.1723635583   -0.0686024057
C        1.7610584075   -3.6863023954    2.6100935890
C       -0.2876974335   -3.3639465916    1.6132531242
C       -2.3132658330   -2.8046981986    0.2249111366
C       -1.2142037863   -2.4712279298    0.9249885105
N       -5.8337249171   -7.8576500804    0.7270122229
N        0.8621927600   -2.8701614432    1.9616410103
N       -0.6494589676   -4.6847596336    1.8870809197
O        2.8531060220   -3.2469846114    2.9267933895
S       -1.9526096105   -5.1432087555   -1.2854870158
H        2.1683298530   -5.6576660442    3.4304705597
H       -4.4905182531   -4.4411257753    1.2584266406
H       -0.0465921958   -6.5799178737    2.7727592249
H       -2.9985262547   -7.4282062673   -1.5367059916
H       -2.9371639303   -1.9900283562   -0.1294593239
H       -0.9428624822   -1.4231438868    0.9615603937
H       -1.5699546443   -4.9746126389    1.5739187711
23   

C       -5.8346476469   -6.1549146677    0.4991412561
C        0.9843850611   -5.0639179558    3.3165684723
C       -4.0805507456   -4.3326850754    0.2144114976
C       -0.3496454153   -5.2170731535    3.1122996791
C       -3.5479633513   -6.5467347956   -0.3627924258
C       -4.5253643704   -5.7163561087    0.1236343445
C       -2.7808332314   -4.1613058387   -0.1969907950
C        1.7127556976   -4.0893764429    2.5405219320
C       -0.1990106218   -3.4865833869    1.4126167652
C       -1.9946726664   -2.9152065596   -0.2496634384
C       -0.8463385153   -2.6578933702    0.4031810305
N       -6.8975760356   -6.5124627302    0.8122998025
N        1.0743169024   -3.3128961078    1.6002158887
N       -0.9467707245   -4.4111758722    2.1449253290
O        2.9122856559   -3.9599999459    2.7141701138
S       -2.0566418528   -5.6865933951   -0.7246637126
H        1.5290665212   -5.6482756130    4.0444408605
H       -4.7155371348   -3.5257704824    0.5669617481
H       -0.9151495207   -5.9453604967    3.6892329384
H       -3.6754947926   -7.6129917655   -0.5137246964
H       -2.4191566115   -2.1021617751   -0.8303471425
H       -0.2981474456   -1.7654223151    0.1271817292
H       -1.9331488921   -4.4757530328    1.9170560178
23   

C       -5.8965406898   -6.1721916306    0.1937564144
C        1.1151925778   -5.0131921026    3.2690118753
C       -4.1349359169   -4.3387818612    0.0778744917
C       -0.2400586759   -5.0859538298    3.2117629377
C       -3.4976439646   -6.5741257947   -0.2624694288
C       -4.5473961643   -5.7336158700    0.0065790651
C       -2.7846445017   -4.1673659525   -0.1217583624
C        1.8153127160   -4.1170403086    2.3804577710
C       -0.1642223460   -3.4393986502    1.4274489214
C       -2.0392274859   -2.9018557203   -0.1500222404
C       -0.8660428283   -2.6210437912    0.4493075904
N       -6.9933905638   -6.5291018443    0.3532172024
N        1.1294834029   -3.3389862905    1.4756554703
N       -0.8869424274   -4.2791365621    2.2774312187
O        3.0320545716   -4.0592688339    2.4238845464
S       -1.9748947344   -5.7104997626   -0.4341433737
H        1.6977277960   -5.6052382460    3.9604822171
H       -4.8279658647   -3.5242517988    0.2633141914
H       -0.7838780471   -5.7543113630    3.8755314611
H       -3.5901465277   -7.6497942750   -0.3630625589
H       -2.5170268239   -2.0814066695   -0.6762514825
H       -0.3397323312   -1.7265995446    0.1395766983
H       -1.8935361348   -4.2895582776    2.1549433655
23   

C       -5.9319332340   -6.2207492720   -0.1140176647
C        1.2341018589   -4.8251223442    3.2011559590
C       -4.2153092511   -4.3427267752   -0.0492620077
C       -0.1191460739   -4.8322073836    3.3212631341
C       -3.4827112282   -6.5730236647   -0.1255923493
C       -4.5801529738   -5.7517413071   -0.0963175883
C       -2.8534702361   -4.1378474805   -0.0185599096
C        1.8517383271   -4.0102165800    2.1826180519
C       -0.2031908640   -3.2879075162    1.4496569183
C       -2.1759453275   -2.8410428053   -0.0274044152
C       -0.9928834490   -2.4976805937    0.5197457641
N       -7.0322177211   -6.6020247928   -0.1220305607
N        1.0887861238   -3.2464860836    1.3290366169
N       -0.8468012092   -4.0422389034    2.4326919806
O        3.0651238583   -4.0124524316    2.0673134083
S       -1.9722066465   -5.6728819779   -0.0915885172
H        1.8752624298   -5.4109408103    3.8444123865
H       -4.9483646457   -3.5424898842   -0.0468985144
H       -0.6001898169   -5.4384655360    4.0855003518
H       -3.5337647249   -7.6551939444   -0.1681605479
H       -2.7131882081   -2.0384804735   -0.5229004156
H       -0.5224805901   -1.5829199262    0.1812360762
H       -1.8598018310   -4.0066594353    2.4425025893
23   

C       -5.9315889596   -6.2360045043   -0.4632094279
C        1.3109932025   -4.8468295737    3.1951889111
C       -4.2299689834   -4.3649982741   -0.1762789131
C       -0.0143308452   -4.7351946895    3.4730263028
C       -3.5331788418   -6.5981244818    0.0232643646
C       -4.6017330438   -5.7724581816   -0.2097948183
C       -2.8970837661   -4.1595119234    0.1108217185
C        1.8606734657   -4.1414852770    2.0623116972
C       -0.2077444002   -3.2957074760    1.5286136275
C       -2.2385632864   -2.8584407586    0.1328959242
C       -1.0451988291   -2.5009424778    0.6484871620
N       -7.0150892442   -6.6127551976   -0.6639346572
N        1.0595646150   -3.3653602719    1.2564354575
N       -0.7832853909   -3.9371361090    2.6271064077
O        3.0474183278   -4.2504123900    1.8067691237
S       -2.0452088201   -5.7025507487    0.2971130082
H        1.9794299250   -5.4484063782    3.7946852107
H       -4.9376969030   -3.5653596874   -0.3691311373
H       -0.4429037185   -5.2575207394    4.3253789124
H       -3.5917475265   -7.6805878589    0.0355930566
H       -2.7892568041   -2.0568850735   -0.3491604592
H       -0.5975729142   -1.5782940078    0.3011484827
H       -1.7805875737   -3.8131341004    2.7572180812
23   

C       -5.0528524823   -6.7210334845   -1.8896522741
C        1.3218547154   -4.8191979900    3.2560340546
C       -3.3874579789   -4.8600859352   -1.3969714360
C        1.2891805932   -5.3435564746    2.0029464423
C       -3.6063908272   -6.6414835080    0.1150710688
C       -4.0491038144   -6.1149769301   -1.0693947005
C       -2.4381355974   -4.4809708586   -0.4702372340
C        0.6712027374   -3.5571604205    3.5146895259
C       -0.0333747105   -3.4227600887    1.3320746522
C       -1.7053181007   -3.2237986619   -0.5244066598
C       -0.7606210701   -2.7164126152    0.2939963317
N       -5.8663612460   -7.2169070588   -2.5594267580
N        0.0053778770   -2.8874589090    2.5139429953
N        0.6088520360   -4.6230187420    1.0220012716
O        0.7010085730   -3.0867776072    4.6386805316
S       -2.3713824193   -5.6422064458    0.8672141518
H        1.8227535171   -5.3121653399    4.0771347013
H       -3.6350000206   -4.2811637254   -2.2806973740
H        1.7786230060   -6.2915763527    1.7915108480
H       -3.9745547162   -7.5656776955    0.5457905105
H       -2.0051434535   -2.5605073179   -1.3295386859
H       -0.5913519020   -1.6473678802    0.2684942297
H        0.5359444555   -4.9467568449    0.0646854544
