18   

C        4.6339180518    1.3441679738    0.7557467720
C        5.8158978960    1.1119094725    0.0625983880
C        3.5008874128    0.5758692131    0.4819786556
C        5.8550403287    0.1119969527   -0.9068727461
C        3.5148812075   -0.4449182471   -0.4880718959
C        4.7261755607   -0.6655066398   -1.1945379383
C        2.2836726517   -1.2595635898   -0.7409971179
C        0.9278793914   -0.7983991275   -0.2166038052
O        2.3102354744   -2.3131859061   -1.3628699842
O        4.8423922339   -1.6058304357   -2.1766994242
H        4.5937704713    2.1205419406    1.5116425858
H        6.6988262903    1.7057168483    0.2738202879
H        2.6057711660    0.7879110694    1.0551104191
H        6.7797938650   -0.0549893290   -1.4450054871
H        0.7582223526    0.2472710219   -0.4865686798
H        0.8914834037   -0.9095444775    0.8701597597
H        0.1315683899   -1.4042718352   -0.6586601528
H        5.7540694777   -1.6523185490   -2.5045198814
18   

C        4.6575895531    1.3424420031    0.8013478876
C        5.8125840929    1.1545667956    0.0488040360
C        3.5350944513    0.5453601376    0.5677991315
C        5.8347095325    0.1718840277   -0.9404584555
C        3.5390812337   -0.4554416673   -0.4197620245
C        4.7147506933   -0.6316656725   -1.1869554933
C        2.3294741382   -1.3189268933   -0.6179731070
C        0.9424552242   -0.7852427651   -0.2806261420
O        2.4123600260   -2.4711546229   -1.0185709282
O        4.7908068316   -1.5494232359   -2.1941700457
H        4.6318275034    2.1040113996    1.5727473359
H        6.6876448607    1.7696878500    0.2295156399
H        2.6577701856    0.7094569570    1.1833550945
H        6.7360244408    0.0407688162   -1.5261676728
H        0.8461561132    0.2479215412   -0.6249364154
H        0.7800183289   -0.8279703845    0.7993319135
H        0.1800580995   -1.3909091438   -0.7788921303
H        5.6959910987   -1.6088482243   -2.5382538058
18   

C        4.7258116181    1.2860874913    0.8619042837
C        5.8345838462    1.1307649235    0.0337251364
C        3.5968832321    0.4855203685    0.6732469358
C        5.8043189467    0.1766748020   -0.9844256202
C        3.5526894013   -0.4797736068   -0.3443829146
C        4.6762795917   -0.6281164313   -1.1835726388
C        2.3474367075   -1.3659700565   -0.4960315700
C        0.9503053730   -0.7827814451   -0.3321525031
O        2.4567350047   -2.5681761037   -0.6810882383
O        4.6825696314   -1.5231048943   -2.2139719204
H        4.7420877915    2.0232794148    1.6568549734
H        6.7145694606    1.7481251198    0.1794246881
H        2.7531182382    0.6138954483    1.3421760772
H        6.6687305686    0.0691353438   -1.6277165465
H        0.8752416635    0.1553270794   -0.8885839054
H        0.7433558245   -0.5964400180    0.7244182404
H        0.2064628346   -1.4830870777   -0.7226925189
H        5.5708446305   -1.5976145458   -2.5978374722
18   

C        4.7794492968    1.2276239892    0.9559559837
C        5.8370832041    1.1272717120    0.0537047200
C        3.6523811039    0.4162228940    0.8024124374
C        5.7589311573    0.2153857841   -1.0011589702
C        3.5638512259   -0.4991184923   -0.2538192506
C        4.6319517049   -0.5986529124   -1.1627533647
C        2.3643005783   -1.4049516050   -0.3769963154
C        0.9607429165   -0.8129456716   -0.3686767009
O        2.4840695210   -2.6188476484   -0.3551165292
O        4.5782535313   -1.4615325233   -2.2188759518
H        4.8351924201    1.9288748209    1.7810449013
H        6.7152890291    1.7529144973    0.1722059010
H        2.8499698595    0.4936877313    1.5277651517
H        6.5837679690    0.1475507819   -1.6994590076
H        0.7552787302   -0.3606286113   -1.3425024274
H        0.8672656917   -0.0481794406    0.4052398116
H        0.2237930632   -1.5986527494   -0.1799615415
H        5.4433181379   -1.5201779419   -2.6557857737
18   

C        4.8409404113    1.1801927645    1.0345515393
C        5.8448810461    1.1147261997    0.0689025691
C        3.7104653072    0.3667376636    0.9204153735
C        5.7095582499    0.2353636864   -1.0083656920
C        3.5680907327   -0.5143591444   -0.1557819405
C        4.5783291382   -0.5798530141   -1.1278034754
C        2.3581691156   -1.4159331338   -0.2556184048
C        0.9856939458   -0.8025747078   -0.4898087243
O        2.4380934431   -2.6069932263   -0.0090216900
O        4.4612211084   -1.4165125950   -2.1998641633
H        4.9403194861    1.8564939730    1.8761772132
H        6.7253537231    1.7423838977    0.1556284537
H        2.9421956826    0.4142135617    1.6849071623
H        6.4924462863    0.1938988031   -1.7553236803
H        0.8654280775   -0.5855834121   -1.5545165049
H        0.8851578985    0.1268658043    0.0759080383
H        0.2034279206   -1.4991984512   -0.1759388240
H        5.2937693182   -1.4476605263   -2.6991154180
18   

C        4.9140741058    1.1371982141    1.1191905391
C        5.8508152391    1.1062148873    0.0864489186
C        3.7790521339    0.3245279131    1.0545416343
C        5.6424456707    0.2638925065   -1.0087571477
C        3.5701342767   -0.5278990587   -0.0328433599
C        4.5062269370   -0.5500964470   -1.0774851265
C        2.3326806703   -1.3957109205   -0.1114142168
C        1.0785378682   -0.8461438612   -0.7726192989
O        2.3184521221   -2.5209620057    0.3569035494
O        4.3129892007   -1.3490871801   -2.1673744568
H        5.0673235391    1.7881721403    1.9726126237
H        6.7341520543    1.7340473574    0.1339453272
H        3.0569926948    0.3490228370    1.8640187167
H        6.3715939557    0.2517127016   -1.8092484188
H        1.2784399224   -0.6564970534   -1.8305497020
H        0.7863380047    0.0899607526   -0.2901492234
H        0.2601047479   -1.5663014113   -0.6864552711
H        5.0994080562   -1.3398154605   -2.7378626591
18   

C        4.9680305723    1.0804884575    1.1658261871
C        5.8517068997    1.0867049362    0.0871549491
C        3.8243295764    0.2788919426    1.1243309099
C        5.5826891143    0.2915498145   -1.0298861322
C        3.5543983572   -0.5279086104    0.0145702431
C        4.4379108058   -0.5122116865   -1.0765925191
C        2.2910481144   -1.3567723676   -0.0306313630
C        1.1485210305   -0.9447170944   -0.9482046779
O        2.1822206524   -2.3746476185    0.6332516641
O        4.1965845695   -1.2736865638   -2.1836418077
H        5.1681388874    1.6948532050    2.0365150031
H        6.7414830253    1.7065052436    0.1166337193
H        3.1412199195    0.2758927568    1.9675277539
H        6.2732235251    0.3069709336   -1.8638675002
H        1.5060349331   -0.8622415988   -1.9774901390
H        0.7542622048    0.0234318692   -0.6292248787
H        0.3477916407   -1.6884418090   -0.9092615415
H        4.9514096120   -1.2306395376   -2.7942317784
18   

C        5.0241543285    1.0381157103    1.1977849120
C        5.8623279540    1.0820968894    0.0839616283
C        3.8679040532    0.2546136141    1.1683375815
C        5.5363263841    0.3430052201   -1.0567651338
C        3.5428392847   -0.4978245275    0.0325380724
C        4.3788370601   -0.4432366376   -1.0945206075
C        2.2553888184   -1.2841796603    0.0325155930
C        1.1684454975   -0.9886932308   -0.9919934108
O        2.0621335897   -2.1526924064    0.8700791312
O        4.0887473096   -1.1539891569   -2.2229540442
H        5.2687674148    1.6094176277    2.0862527026
H        6.7618132888    1.6880768419    0.1049537617
H        3.2186156435    0.2223481789    2.0376081634
H        6.1941115252    0.3878234793   -1.9157745518
H        1.4354995120   -1.4257860382   -1.9570312102
H        1.0545909920    0.0922971783   -1.1067143389
H        0.2167379952   -1.4131289673   -0.6608565477
H        4.8143543236   -1.0771875768   -2.8650749312
18   

C        5.0205760483    0.9052036298    1.2655455620
C        5.8350824556    0.9829988187    0.1366390021
C        3.8345499052    0.1689903836    1.2190311664
C        5.4572899155    0.3234562146   -1.0362418243
C        3.4536816969   -0.5034781805    0.0479737210
C        4.2703541048   -0.4167405408   -1.0939474611
C        2.1348636819   -1.2265628262    0.0548249545
C        1.1461755853   -1.0891405173   -1.0954168032
O        1.8274942007   -1.9241431991    1.0129604984
O        3.9407087182   -1.0523585678   -2.2559661772
H        5.3055633861    1.4147197825    2.1792082695
H        6.7570226498    1.5535848493    0.1711470305
H        3.2041197479    0.1143554638    2.1012918640
H        6.0996399214    0.3935942661   -1.9051794778
H        1.3304239005   -1.8725421647   -1.8350193199
H        1.2605579848   -0.1114618531   -1.5708947440
H        0.1234348601   -1.1821259545   -0.7202756805
H        4.6484360934   -0.9406874711   -2.9128498490
18   

C        5.0744510348    0.8584502168    1.2798401694
C        5.8657391620    0.9532172358    0.1369658051
C        3.8596999682    0.1714424311    1.2314795050
C        5.4378200402    0.3570405784   -1.0517110249
C        3.4201689122   -0.4326382186    0.0407205300
C        4.2222573980   -0.3352280760   -1.1145988479
C        2.0824425880   -1.1168180306    0.0737127527
C        1.1550144533   -1.1553649548   -1.1347350481
O        1.6868705618   -1.6163858788    1.1214236485
O        3.8621653774   -0.9166042636   -2.2955716882
H        5.3993316136    1.3170486117    2.2070701663
H        6.8098153915    1.4862462771    0.1735047823
H        3.2535960314    0.1091439258    2.1302530555
H        6.0664189056    0.4367185139   -1.9298379333
H        1.4110208489   -2.0077418805   -1.7692946578
H        1.2516875084   -0.2315070459   -1.7109339107
H        0.1173249400   -1.2552024773   -0.8048935346
H        4.5610277323   -0.7899247521   -2.9592303006
18   

C        5.0815031947    0.8027895919    1.3193983303
C        5.8578375588    0.8970235329    0.1677589736
C        3.8307047940    0.1846207058    1.2692036549
C        5.3793389229    0.3676437593   -1.0320290724
C        3.3329246644   -0.3496816010    0.0655402595
C        4.1274367953   -0.2565733869   -1.0998092920
C        1.9669680649   -0.9783938683    0.1183463243
C        1.1151073389   -1.2313248311   -1.1203047346
O        1.4736853313   -1.2520117208    1.2086311714
O        3.7323136820   -0.7719075951   -2.2996348702
H        5.4456857579    1.2089374992    2.2564437621
H        6.8297490915    1.3772883177    0.2061798778
H        3.2464811034    0.1282915895    2.1826435786
H        5.9988137593    0.4451037991   -1.9168211742
H        1.4881722145   -2.1094949892   -1.6535834892
H        1.1443111053   -0.3604253222   -1.7800853458
H        0.0765184509   -1.4109953393   -0.8289461301
H        4.4255814451   -0.6371793041   -2.9675473868
18   

C        5.1368201055    0.7417154824    1.3248053465
C        5.9095603368    0.8403106915    0.1720261319
C        3.8570325086    0.1876727448    1.2623507863
C        5.3966437302    0.3825823170   -1.0421939365
C        3.3234184494   -0.2794076574    0.0452144916
C        4.1148247626   -0.1761467467   -1.1239597563
C        1.9337491216   -0.8573044862    0.0966843421
C        1.2005314104   -1.4089586627   -1.1209817314
O        1.3396025054   -0.8958518344    1.1707119722
O        3.6851405698   -0.6003504616   -2.3470141853
H        5.5263535545    1.0945455443    2.2731867120
H        6.9041084188    1.2707857533    0.2201120603
H        3.2829160078    0.1269129422    2.1818018145
H        6.0121768350    0.4673503590   -1.9290713377
H        1.7624821068   -2.2430082872   -1.5489840522
H        1.0763629921   -0.6226299038   -1.8699045469
H        0.2104171158   -1.7704761648   -0.8294360106
H        4.3713652387   -0.4426424420   -3.0171381152
18   

C        5.1409453276    0.6623054154    1.3471826342
C        5.9128849940    0.7669247922    0.1934880276
C        3.8354123420    0.1734434769    1.2713793555
C        5.3723783842    0.3840370945   -1.0353098443
C        3.2784060294   -0.2209447857    0.0400085805
C        4.0642831193   -0.1074280325   -1.1293807396
C        1.8700857630   -0.7495810726    0.0729884152
C        1.2634730573   -1.5818704965   -1.0509390495
O        1.1817370469   -0.5623994570    1.0720154821
O        3.5923967551   -0.4414047493   -2.3651217148
H        5.5512848485    0.9594075584    2.3058228131
H        6.9273568889    1.1466438145    0.2518210020
H        3.2581915836    0.1005631222    2.1880949308
H        5.9852213807    0.4771673065   -1.9232042191
H        1.9800093020   -2.3347380141   -1.3891631945
H        0.9900090339   -0.9326469817   -1.8866858550
H        0.3654193806   -2.0935527362   -0.6938408920
H        4.2672792642   -0.2632370316   -3.0416340145
18   

C        4.6323389066    1.9328198869    0.1068575676
C        5.7628741959    1.1263350848   -0.0060637950
C        3.3673870202    1.3994544985   -0.1487914753
C        5.6224601519   -0.2131264666   -0.3770357697
C        3.2150583195    0.0531707736   -0.5233993714
C        4.3603182432   -0.7611598908   -0.6367287724
C        1.8128965991   -0.4423375250   -0.7404684171
C        1.3938076706   -1.8723941587   -0.4222589893
O        0.9522594038    0.3377799710   -1.1334834336
O        4.2820252295   -2.0697618542   -1.0159284411
H        4.7320543631    2.9738710237    0.3930125749
H        6.7460707133    1.5397373455    0.1918203721
H        2.4962711011    2.0406570584   -0.0536429570
H        6.5114783833   -0.8252406109   -0.4639544239
H        1.9458196172   -2.2401421175    0.4465956704
H        1.5977345196   -2.5165213070   -1.2814828295
H        0.3243074177   -1.9058404857   -0.1972855113
H        5.1727690040   -2.4516639484   -1.0909305713
18   

C        4.6026051807    1.9095496316    0.1692549468
C        5.7441266679    1.1208425772    0.0322645922
C        3.3485204632    1.3794519201   -0.1423504704
C        5.6247538181   -0.1977334623   -0.4154800634
C        3.2220406354    0.0596335647   -0.6014095864
C        4.3725963128   -0.7392086154   -0.7300357973
C        1.8346911296   -0.4603524828   -0.8603795496
C        1.3912025110   -1.8282312827   -0.3587107871
O        1.0270533710    0.2333182828   -1.4650992017
O        4.2993185907   -2.0287686700   -1.1712044244
H        4.6860573361    2.9331239658    0.5170126419
H        6.7190589372    1.5311038390    0.2729423384
H        2.4636367791    1.9987206614   -0.0314558166
H        6.5201069765   -0.7983857177   -0.5162032913
H        1.9394593558   -2.0878330711    0.5507065049
H        1.5873879175   -2.5828231843   -1.1247263997
H        0.3212721367   -1.8134325478   -0.1341990767
H        5.1913099049   -2.4038366950   -1.2635091998
18   

C        4.5666149387    1.8345559800    0.2337791396
C        5.7196420895    1.0735927455    0.0430707832
C        3.3209929032    1.3122003974   -0.1228594898
C        5.6191660871   -0.2097584995   -0.5015147671
C        3.2153089642    0.0315659743   -0.6802449048
C        4.3745520532   -0.7406221043   -0.8600425608
C        1.8424448056   -0.5069535345   -0.9982155475
C        1.3308298730   -1.7700732513   -0.3189759494
O        1.1161397421    0.0785887642   -1.7873617398
O        4.3103957339   -1.9963623247   -1.3907584789
H        4.6352604268    2.8305270838    0.6567763935
H        6.6883251582    1.4775684933    0.3172723527
H        2.4260675284    1.9080986711    0.0263192264
H        6.5217315581   -0.7912729104   -0.6422414412
H        1.5761766679   -1.7406239496    0.7457222114
H        1.7936160239   -2.6511770023   -0.7696052352
H        0.2456474080   -1.8423331731   -0.4317050666
H        5.2053335546   -2.3480031902   -1.5327397885
18   

C        4.6399590382    1.8259753869    0.3561345306
C        5.8051896690    1.0952826778    0.1264756363
C        3.4030623344    1.3038490689   -0.0309010369
C        5.7244509438   -0.1573965881   -0.4872570960
C        3.3155562498    0.0559228380   -0.6556509592
C        4.4877613498   -0.6850478929   -0.8757441859
C        1.9654372511   -0.5117718287   -1.0299057302
C        1.3832142332   -1.6683764309   -0.2296565136
O        1.3447822698   -0.0803508760   -1.9876716388
O        4.4380273566   -1.9144777778   -1.4670747369
H        4.6927529974    2.7985541780    0.8324645189
H        6.7673517476    1.4982654699    0.4240867209
H        2.4995826833    1.8777624926    0.1479146934
H        6.6349383622   -0.7184165390   -0.6571701223
H        1.1976379714   -1.3453519816    0.7978243874
H        2.0843255387   -2.5064484270   -0.2185428621
H        0.4418673565   -1.9992358670   -0.6771026275
H        5.3362437712   -2.2417332857   -1.6418467271
18   

C        4.6248638910    1.7743985549    0.4298318400
C        5.8108184505    1.0979212798    0.1454135371
C        3.4005361016    1.2315423130    0.0308123680
C        5.7630699255   -0.1223484101   -0.5336052692
C        3.3466797739    0.0168816565   -0.6579505931
C        4.5387156457   -0.6696095830   -0.9332984387
C        2.0198763456   -0.5797356977   -1.0753633099
C        1.2890100207   -1.5111974422   -0.1212656764
O        1.5206570610   -0.3175839679   -2.1559872953
O        4.5150915020   -1.8734994011   -1.5764763617
H        4.6523848676    2.7215698170    0.9567955648
H        6.7633026701    1.5170575065    0.4517006463
H        2.4818890437    1.7656403172    0.2500146869
H        6.6884636315   -0.6439146549   -0.7438593159
H        1.1272433373   -1.0077579049    0.8352009972
H        1.8912898436   -2.4085073587    0.0437696567
H        0.3227872584   -1.8012744270   -0.5433493267
H        5.4178256923   -2.1583109038   -1.7954522338
18   

C        4.6014668250    1.6784689700    0.4976961473
C        5.8141853674    1.0807566818    0.1560548754
C        3.3982152900    1.0905254321    0.0986739630
C        5.8148115864   -0.1053812928   -0.5823067883
C        3.3916856427   -0.0971020480   -0.6391016682
C        4.6122260401   -0.6988005418   -0.9825114547
C        2.0871838922   -0.7101778706   -1.0964170613
C        1.1202006550   -1.2685016400   -0.0629970868
O        1.7301550443   -0.6361832941   -2.2595425139
O        4.6395788257   -1.8677830406   -1.6866135436
H        4.5922391564    2.6015096868    1.0664701554
H        6.7503942628    1.5357426086    0.4613552787
H        2.4605498689    1.5714262246    0.3564681650
H        6.7611569790   -0.5643335245   -0.8399349209
H        1.1014579600   -0.6282933745    0.8223186834
H        1.4451915325   -2.2704707021    0.2295617526
H        0.1125277241   -1.3276360927   -0.4835177360
H        5.5471057925   -2.0774912878   -1.9618871750
18   

C        4.5872468685    1.5925428006    0.5662198577
C        5.8158618807    1.0658301773    0.1715059365
C        3.4013773660    0.9691332496    0.1695989583
C        5.8504644280   -0.0861958572   -0.6171753134
C        3.4262035409   -0.1879580558   -0.6189376908
C        4.6667110792   -0.7175165865   -1.0159397941
C        2.1378869441   -0.8202344679   -1.0829247623
C        1.0526571251   -1.1646187289   -0.0709000698
O        1.8879807669   -0.9476320896   -2.2702253857
O        4.7376558748   -1.8555162754   -1.7661147369
H        4.5519222378    2.4900953367    1.1734951742
H        6.7383834541    1.5495171604    0.4743545647
H        2.4554392932    1.4071939386    0.4684384013
H        6.8097826031   -0.4903626402   -0.9154008907
H        0.9206445370   -0.3525941915    0.6472510209
H        1.3375696769   -2.0726141214    0.4671632793
H        0.1032404518   -1.3399106779   -0.5846339917
H        5.6447029856   -2.0008937453   -2.0804343105
18   

C        4.5890851551    1.4967667609    0.6434913533
C        5.8218789260    1.0469249459    0.1774071060
C        3.4169433033    0.8414435645    0.2592721180
C        5.8744634665   -0.0623922791   -0.6678549606
C        3.4536729761   -0.2734179294   -0.5920953886
C        4.7055274754   -0.7278780883   -1.0558424222
C        2.1758319672   -0.9312762710   -1.0345160578
C        1.0393081576   -1.1290153265   -0.0404602559
O        1.9925979962   -1.2542376615   -2.1979606306
O        4.8119880474   -1.8280850284   -1.8564548456
H        4.5392207154    2.3593914278    1.2985144372
H        6.7341056618    1.5554464135    0.4706387601
H        2.4682888519    1.2215957828    0.6217916382
H        6.8386256476   -0.4088370132   -1.0185157686
H        0.5419664398   -0.1759404853    0.1549503663
H        1.4349355528   -1.5316731002    0.8958322199
H        0.3090848321   -1.8353304093   -0.4456071741
H        5.7166632445   -1.9186509625   -2.1960093630
18   

C        4.5819986049    1.4267824477    0.7073082795
C        5.8161670078    1.0538184292    0.1844343016
C        3.4274337081    0.7374722381    0.3308361422
C        5.8882877636   -0.0143668100   -0.7092099267
C        3.4775569990   -0.3374059328   -0.5740333023
C        4.7385414958   -0.7159889961   -1.0920394408
C        2.2133872515   -1.0303569648   -0.9864765866
C        1.0164257921   -1.0671917593   -0.0439298009
O        2.0871653499   -1.5527736810   -2.0846796626
O        4.8838064991   -1.7743878480   -1.9412893204
H        4.5168028779    2.2563609171    1.4024758101
H        6.7148421576    1.5890188183    0.4720196315
H        2.4811383179    1.0652551570    0.7463052987
H        6.8553751877   -0.3016276478   -1.1027039337
H        0.4878244557   -0.1111355952   -0.0764713301
H        1.3516954985   -1.2657977687    0.9775412748
H        0.3299300790   -1.8632649612   -0.3461544217
H        5.7922658844   -1.8232790985   -2.2783303453
18   

C        4.6203030669    1.3832644245    0.7130035750
C        5.8365725381    1.0524470198    0.1275783510
C        3.4647988220    0.6795402156    0.3686603171
C        5.8895896307    0.0126331333   -0.7982764690
C        3.4892121383   -0.3712249734   -0.5686232400
C        4.7396146123   -0.7042146448   -1.1522336221
C        2.2250232610   -1.0910941863   -0.9251415909
C        0.9773285576   -0.9405730342   -0.0611756505
O        2.1364666913   -1.8138890230   -1.9086446949
O        4.8837248492   -1.7247180886   -2.0467510813
H        4.5693653735    2.1906682252    1.4349809302
H        6.7362361929    1.5981691137    0.3913531478
H        2.5387427319    0.9805099206    0.8445933542
H        6.8442266176   -0.2402445712   -1.2425302912
H        0.5543711651    0.0592079934   -0.1887606155
H        1.2283107641   -1.1037434677    0.9902395655
H        0.2274189678   -1.6798036760   -0.3574532148
H        5.7937848100   -1.7665650332   -2.3796511004
18   

C        4.6296200259    1.3631539293    0.7326774062
C        5.8322204573    1.0850069755    0.0954462514
C        3.4864214599    0.6250096212    0.4213919426
C        5.8829985160    0.0661356411   -0.8527043459
C        3.5073892624   -0.4113221858   -0.5332159435
C        4.7452472013   -0.6838999024   -1.1766039690
C        2.2589105601   -1.1798849009   -0.8387197265
C        0.9501176974   -0.8554540970   -0.1252603546
O        2.2285397163   -2.0876898648   -1.6594186106
O        4.8890440291   -1.6621153888   -2.1171699954
H        4.5801024951    2.1545149582    1.4723124849
H        6.7226532458    1.6565276562    0.3347947843
H        2.5753354039    0.8835825182    0.9479437251
H        6.8262911317   -0.1410733251   -1.3425154543
H        0.6576820996    0.1772135170   -0.3326094012
H        1.0667082489   -0.9982208112    0.9522089159
H        0.1566408267   -1.5196066282   -0.4802692505
H        5.8023433410   -1.6989113968   -2.4413948483
