19   

C        1.7384419970   -1.2550412700   -0.1122797157
C        0.7594317767   -0.5075774543    0.5303299448
C        2.7566132660   -1.8501373723    0.6347322446
C        0.8073010420   -0.3576060630    1.9153937889
C        2.8280617124   -1.7222434619    2.0404848157
C        1.8262642399   -0.9506732063    2.6864757229
C        3.9374114945   -2.3782579180    2.7466363214
C        1.8205881749   -0.7129792724    4.1780480212
N        4.0768571176   -2.6267519594    4.0910981786
N        5.0301618460   -2.8515689983    2.1031537344
N        5.2770297617   -3.2535563837    4.2090870156
N        5.8283600910   -3.3841372024    3.0607114941
H        1.7153431879   -1.3773119869   -1.1884326459
H       -0.0339060107   -0.0418625794   -0.0418556658
H        3.5107555986   -2.4302255831    0.1154791126
H        0.0396936047    0.2333955845    2.3998319458
H        1.6340957477   -1.6524088052    4.7071424549
H        2.7825629743   -0.3020116406    4.4992559005
H        1.0397015255   -0.0015163491    4.4605779211
19   

C        1.7129374891   -1.2940504787   -0.1207866968
C        0.7450747687   -0.5273953088    0.5192876197
C        2.7303750201   -1.8896769350    0.6275689524
C        0.8041279152   -0.3562383058    1.9025891931
C        2.8048605819   -1.7452875433    2.0284876693
C        1.8220583411   -0.9504426122    2.6730367226
C        3.9194818294   -2.3869559898    2.7407815494
C        1.8515888872   -0.6869226030    4.1595308089
N        3.9559085800   -2.8265543317    4.0413762491
N        5.1183903895   -2.6198858990    2.1598426355
N        5.2106010735   -3.3260490039    4.1994006292
N        5.8819064869   -3.2075950277    3.1139400493
H        1.6822553822   -1.4285952545   -1.1952684261
H       -0.0467379735   -0.0606989469   -0.0541979252
H        3.4837829321   -2.4827233597    0.1216210079
H        0.0492486152    0.2523802517    2.3852102923
H        1.5998732644   -1.6006483518    4.7063002135
H        2.8469647045   -0.3497439448    4.4649110181
H        1.1321414480    0.0891076642    4.4351947193
19   

C        1.7018344455   -1.3117163381   -0.1259327571
C        0.7477904800   -0.5265565529    0.5158737881
C        2.7149296818   -1.9180839566    0.6206142841
C        0.8167249906   -0.3454997445    1.8986290347
C        2.7904109276   -1.7678567995    2.0176848014
C        1.8298562457   -0.9513841609    2.6651502867
C        3.9059646115   -2.4037067755    2.7384499902
C        1.8880639306   -0.6855885646    4.1499699808
N        3.8595510219   -3.0319565396    3.9574609380
N        5.1751592333   -2.4030973753    2.2762030273
N        5.1448365974   -3.4126226692    4.1879985317
N        5.9038012690   -3.0508678146    3.2191041969
H        1.6642330177   -1.4500066664   -1.1997020054
H       -0.0398452376   -0.0514251952   -0.0564300331
H        3.4660189326   -2.5214531283    0.1234471835
H        0.0758344044    0.2788182863    2.3828577390
H        1.6063228345   -1.5875489893    4.7015675099
H        2.9012673116   -0.3931000237    4.4430191037
H        1.2053195091    0.1210848908    4.4309542491
19   

C        2.0351236034   -0.7401682993   -0.1290702032
C        0.8618364864   -0.3414555859    0.5086925448
C        3.0419896063   -1.3722511182    0.6053525280
C        0.7042672302   -0.5687559741    1.8782659802
C        2.8906584990   -1.6312339081    1.9777833104
C        1.7084956498   -1.2058518280    2.6301188222
C        4.0016554027   -2.2597225452    2.7199436545
C        1.5218274171   -1.3995209029    4.1151247286
N        3.9284516550   -3.3778794861    3.5095857962
N        5.2484913278   -1.7466455279    2.7605333720
N        5.1890850334   -3.5175140342    4.0017986504
N        5.9503453461   -2.5783840844    3.5703876626
H        2.1711255646   -0.5573963260   -1.1881221031
H        0.0778405099    0.1508059265   -0.0540454027
H        3.9642011364   -1.6737418952    0.1220344025
H       -0.2069292420   -0.2420388852    2.3641817515
H        1.4039635957   -2.4637367490    4.3403837156
H        2.3936060142   -1.0199539541    4.6574388840
H        0.6355658900   -0.8675132730    4.4718894638
19   

C        2.0221875868   -0.7555440445   -0.1439809458
C        0.8571549851   -0.3442241050    0.5031949053
C        3.0361780965   -1.3821494141    0.5861167936
C        0.7126172856   -0.5554261003    1.8775284861
C        2.8974648847   -1.6165616502    1.9627401206
C        1.7241320840   -1.1859711032    2.6243539574
C        4.0014419009   -2.2501989891    2.7188404210
C        1.5569966187   -1.3824691739    4.1109952203
N        3.9850476237   -3.5049568606    3.2674381836
N        5.1577401764   -1.6256035124    3.0155042546
N        5.1913641829   -3.6052152500    3.8890184876
N        5.8677260971   -2.5234304573    3.7438177609
H        2.1449955077   -0.5878197134   -1.2071170793
H        0.0681204410    0.1430899901   -0.0568004662
H        3.9509610110   -1.6973028619    0.0979202270
H       -0.1932803274   -0.2234066431    2.3696999224
H        1.5105353250   -2.4509610978    4.3426970287
H        2.4068702777   -0.9457203400    4.6450094500
H        0.6400935995   -0.9066697981    4.4696800217
19   

C        2.0190235986   -0.7821086132   -0.1503747082
C        0.8616004305   -0.3513085710    0.4987480248
C        3.0362864566   -1.3995793994    0.5832681795
C        0.7250747282   -0.5389365055    1.8776323926
C        2.9114550334   -1.5936233301    1.9668733952
C        1.7406401997   -1.1585090924    2.6278390218
C        4.0006464738   -2.2497473894    2.7296371082
C        1.5774294762   -1.3534899191    4.1148718733
N        4.1205631878   -3.5935134718    2.9593414868
N        5.0230584174   -1.5822189202    3.2959847654
N        5.2605922127   -3.6960030713    3.6954743313
N        5.7815365582   -2.5381362514    3.8890091988
H        2.1316802557   -0.6397120056   -1.2183143578
H        0.0699053881    0.1279790514   -0.0644092283
H        3.9412335493   -1.7389558990    0.0931157134
H       -0.1783066621   -0.1998977196    2.3696316138
H        1.6283281365   -2.4191860048    4.3592032308
H        2.3792070029   -0.8344591717    4.6494399462
H        0.6167328910   -0.9613987561    4.4599610944
19   

C        2.0163712828   -0.8108402240   -0.1449796322
C        0.8673359098   -0.3530580751    0.4994143581
C        3.0318690016   -1.4191449439    0.5983519159
C        0.7356728028   -0.5102954005    1.8821654306
C        2.9214957066   -1.5676318704    1.9894390053
C        1.7504629420   -1.1195608555    2.6421232130
C        3.9981609506   -2.2489430616    2.7439291312
C        1.5785551217   -1.2985964188    4.1302988846
N        4.3251693560   -3.5743982787    2.6467154319
N        4.8598830434   -1.6116876866    3.5592653039
N        5.3993441335   -3.7055195008    3.4719408146
N        5.7085473462   -2.5752188132    3.9973243002
H        2.1227909743   -0.6998199542   -1.2172763574
H        0.0763302801    0.1186888450   -0.0710280246
H        3.9260883017   -1.7881769604    0.1095597108
H       -0.1651281576   -0.1578919590    2.3694874727
H        1.6973144991   -2.3535358245    4.3968843552
H        2.3342944165   -0.7155603659    4.6655918830
H        0.5879852974   -0.9674685622    4.4542088364
19   

C        2.0175069956   -0.8413084236   -0.1367630411
C        0.8753797845   -0.3520774392    0.4944407362
C        3.0183261448   -1.4550978889    0.6210968662
C        0.7357359966   -0.4860024266    1.8781323170
C        2.9062723215   -1.5765858363    2.0161713816
C        1.7362815276   -1.0996010505    2.6540212287
C        3.9688229597   -2.2750414679    2.7657164490
C        1.5354310291   -1.2620492020    4.1409850648
N        4.4900017335   -3.5007435663    2.4457733373
N        4.6573535591   -1.7310448502    3.7899223344
N        5.4855353819   -3.6818648193    3.3555809071
N        5.5829152624   -2.6625651428    4.1300398822
H        2.1299120166   -0.7518101586   -1.2104690496
H        0.0948997395    0.1237923780   -0.0869727698
H        3.9051183710   -1.8501789178    0.1386842497
H       -0.1623680916   -0.1125175318    2.3546381081
H        1.7153040307   -2.3009543773    4.4348352671
H        2.2334898713   -0.6175772895    4.6837941303
H        0.5158021206   -0.9934341448    4.4308161264
19   

C        2.0025708106   -0.8660270162   -0.1323674000
C        0.8738740578   -0.3555365751    0.5031942517
C        3.0008120737   -1.4860358350    0.6228235249
C        0.7458313006   -0.4750245292    1.8884451311
C        2.9027742339   -1.5971760763    2.0219132325
C        1.7436361935   -1.0946941457    2.6641849726
C        3.9744814546   -2.2924191061    2.7533898635
C        1.5306940151   -1.2423375958    4.1517187024
N        4.6643416054   -3.3832874788    2.2900901487
N        4.5039126765   -1.8806023832    3.9255309946
N        5.5928172924   -3.6244050402    3.2548026524
N        5.5011104785   -2.7587271237    4.1976010665
H        2.1076824059   -0.7875001339   -1.2076823141
H        0.0947196599    0.1255821812   -0.0756794410
H        3.8774689273   -1.8923320646    0.1310531693
H       -0.1438376170   -0.0850984059    2.3676372361
H        1.7380364649   -2.2704813124    4.4645308245
H        2.1985292105   -0.5655264308    4.6931171149
H        0.4990738566   -1.0043585307    4.4254466276
19   

C        1.9927541853   -0.8803941110   -0.1334587976
C        0.8745741531   -0.3541665429    0.5043404665
C        2.9882869464   -1.5052167223    0.6201945992
C        0.7558317579   -0.4622172905    1.8902885009
C        2.8998683855   -1.6129742853    2.0227449082
C        1.7500598044   -1.0878931681    2.6673893615
C        3.9847233421   -2.2993167802    2.7395063757
C        1.5247641976   -1.2126899367    4.1559626554
N        4.8246099719   -3.2320817574    2.1830944894
N        4.3631397251   -2.0580804643    4.0145574999
N        5.6888220995   -3.5494277635    3.1842028894
N        5.4233102075   -2.8728043726    4.2407263161
H        2.0933520449   -0.8090224045   -1.2097183792
H        0.0969189581    0.1315021724   -0.0727597989
H        3.8569669166   -1.9160040274    0.1182234933
H       -0.1268625130   -0.0574012900    2.3700609444
H        1.6891400817   -2.2450849778    4.4797200696
H        2.2115205132   -0.5532806516    4.6951988107
H        0.5012942967   -0.9350588100    4.4227857140
19   

C        1.9751747159   -0.9092802542   -0.1273219410
C        0.8636844548   -0.3743235589    0.5117936373
C        2.9736800693   -1.5284505731    0.6260393680
C        0.7566937713   -0.4661701721    1.8989347639
C        2.8958956685   -1.6285105727    2.0320643820
C        1.7533187832   -1.0870386955    2.6784127058
C        3.9953571539   -2.2994207211    2.7397823891
C        1.5301765366   -1.1696103079    4.1709820806
N        4.9751440925   -3.0481038328    2.1329050198
N        4.2340750000   -2.2555283306    4.0704810047
N        5.7819486636   -3.4490449403    3.1512460798
N        5.3548317614   -2.9920370830    4.2697954550
H        2.0695463250   -0.8480693449   -1.2047828844
H        0.0833290635    0.1079012984   -0.0645637354
H        3.8359975484   -1.9406250122    0.1146513777
H       -0.1205828307   -0.0495327827    2.3785227221
H        1.6103581426   -2.2070787430    4.5096076552
H        2.2692228187   -0.5571747065    4.6963502945
H        0.5349257995   -0.8061576861    4.4413100233
19   

C        1.9490653873   -0.9392299794   -0.1206442062
C        0.8401433195   -0.4037152168    0.5211323109
C        2.9563331021   -1.5452181464    0.6313393195
C        0.7468496304   -0.4782176783    1.9099013614
C        2.8896277786   -1.6356760368    2.0395685775
C        1.7523652063   -1.0857150915    2.6891941157
C        4.0006950205   -2.2926900077    2.7421174567
C        1.5537868295   -1.1137791985    4.1875480694
N        5.1070252676   -2.8291813046    2.1268050542
N        4.1128394592   -2.4722962588    4.0784265762
N        5.8625817805   -3.3241667803    3.1428340680
N        5.2891787918   -3.1184640315    4.2699204967
H        2.0350260095   -0.8885767338   -1.1993624415
H        0.0529186902    0.0687629442   -0.0539591452
H        3.8146631752   -1.9578497783    0.1138339478
H       -0.1260298154   -0.0545751398    2.3913616405
H        1.5254243454   -2.1473224859    4.5457396652
H        2.3655822032   -0.5758851970    4.6865220792
H        0.6119174483   -0.6355363222    4.4700802554
19   

C        1.9397291480   -0.9759628917   -0.1335139135
C        0.8298278901   -0.4379793358    0.5058232935
C        2.9529088950   -1.5676193031    0.6223610944
C        0.7431597847   -0.4916918704    1.8963802960
C        2.8879203361   -1.6436113369    2.0305377487
C        1.7547527206   -1.0844898192    2.6784273693
C        4.0035603975   -2.2841938382    2.7410324163
C        1.5877687431   -1.0618279966    4.1804203804
N        5.2141962885   -2.6012214634    2.1730064260
N        4.0017280163   -2.6898776219    4.0314136977
N        5.9202590734   -3.1903402555    3.1745676666
N        5.2211477649   -3.2418017758    4.2474333664
H        2.0217086676   -0.9380213888   -1.2130574989
H        0.0384617143    0.0236016719   -0.0724206516
H        3.8127860462   -1.9844142148    0.1106087387
H       -0.1263947711   -0.0605667344    2.3772249894
H        1.4549220835   -2.0795936912    4.5596094463
H        2.4648992518   -0.6090688064    4.6527414753
H        0.7120152336   -0.4748978956    4.4707099106
19   

C        1.9090916590   -1.0029486825   -0.1125711516
C        0.8082648864   -0.4509582535    0.5335650785
C        2.9278875157   -1.5921168246    0.6387086675
C        0.7366044467   -0.4855531280    1.9265008311
C        2.8717613131   -1.6541421603    2.0457227526
C        1.7538471665   -1.0763453883    2.7011190506
C        3.9940132613   -2.2776808864    2.7619233294
C        1.6297404736   -1.0282859478    4.2059243044
N        5.2713319737   -2.3887778723    2.2706952380
N        3.9187161950   -2.8978611801    3.9607069138
N        5.9471557627   -3.0694217525    3.2349153890
N        5.1677585690   -3.3633120175    4.2099156190
H        1.9798371970   -0.9761960305   -1.1932317104
H        0.0136625113    0.0090274508   -0.0414898185
H        3.7852116276   -2.0187879008    0.1305042822
H       -0.1220248350   -0.0408616633    2.4145679036
H        1.4306186950   -2.0304230801    4.5974562527
H        2.5533200652   -0.6454587991    4.6510358723
H        0.8108683349   -0.3711963835    4.5116078611
19   

C        1.9022675457   -1.0184999210   -0.1187446545
C        0.8082541192   -0.4504655195    0.5285269170
C        2.9191408738   -1.6121580299    0.6327588269
C        0.7410877578   -0.4719041577    1.9230178942
C        2.8608232298   -1.6648955661    2.0374840594
C        1.7560233698   -1.0682433815    2.6948031379
C        3.9825596008   -2.2750299477    2.7698264874
C        1.6579629169   -1.0183133147    4.2007196771
N        5.3014610069   -2.1880987418    2.4044585043
N        3.8556228128   -3.0999417212    3.8315526837
N        5.9514449490   -2.9592033418    3.3175824160
N        5.1188726602   -3.4851778354    4.1402928444
H        1.9693741007   -0.9988423605   -1.1997749439
H        0.0161697309    0.0129693595   -0.0472186760
H        3.7768489605   -2.0482496128    0.1331559040
H       -0.1094296003   -0.0143702704    2.4133869703
H        1.4310306393   -2.0142339316    4.5929388515
H        2.6036226988   -0.6745666728    4.6314017880
H        0.8688371536   -0.3316781118    4.5194904579
19   

C        1.8963104226   -1.0356747981   -0.1187592572
C        0.8151779185   -0.4424168931    0.5304090743
C        2.9077494011   -1.6406419859    0.6320697840
C        0.7545543499   -0.4496902472    1.9262253000
C        2.8512657270   -1.6791376454    2.0352382057
C        1.7644236525   -1.0571433436    2.6948285437
C        3.9675159454   -2.2887608050    2.7842942818
C        1.6866159172   -1.0128058717    4.2014027181
N        5.2953449417   -2.0127009412    2.5919294856
N        3.8267416922   -3.2988994247    3.6668802680
N        5.9342250085   -2.8689925585    3.4346872216
N        5.0888838849   -3.6106657622    4.0540052810
H        1.9575471737   -1.0256275826   -1.2002573958
H        0.0280649277    0.0294997474   -0.0452563526
H        3.7592571265   -2.0941920349    0.1376632661
H       -0.0849052828    0.0256796681    2.4186398154
H        1.4991719221   -2.0166340894    4.5944254738
H        2.6291040552   -0.6429675176    4.6172955245
H        0.8807201924   -0.3523978197    4.5333579792
19   

C        1.8704606113   -1.0546425174   -0.1293046070
C        0.8092872893   -0.4414293180    0.5362563370
C        2.8870049115   -1.6701148114    0.6066597221
C        0.7716087098   -0.4409003463    1.9336251947
C        2.8533038840   -1.6931356259    2.0094025463
C        1.7874170653   -1.0575900166    2.6861989474
C        3.9635459484   -2.3212377786    2.7613959464
C        1.7382438764   -1.0266825673    4.1938129518
N        5.2507584184   -1.8596218885    2.8180610573
N        3.8569347220   -3.4949659592    3.4128803299
N        5.8984915754   -2.7939876813    3.5660209379
N        5.0965192519   -3.7367921439    3.9083289370
H        1.9111252545   -1.0527084396   -1.2118078948
H        0.0186042709    0.0379110173   -0.0282726980
H        3.7225636633   -2.1421928431    0.1029588593
H       -0.0537101403    0.0458543335    2.4386319755
H        1.6372744977   -2.0439778510    4.5843598574
H        2.6605354047   -0.5900796997    4.5898237145
H        0.8918993184   -0.4312885155    4.5473645042
19   

C        1.8482179437   -1.0720758551   -0.1390923881
C        0.8045629368   -0.4377975561    0.5354729207
C        2.8740286685   -1.6827018414    0.5883561840
C        0.7898098510   -0.4160937496    1.9334916446
C        2.8707783298   -1.6678791825    1.9909939390
C        1.8153108104   -1.0264682970    2.6776962954
C        3.9666648118   -2.3211818288    2.7465600194
C        1.7844162271   -0.9938501991    4.1856395735
N        5.1318352715   -1.7238200532    3.1445447915
N        3.9413501959   -3.6094885617    3.1355332295
N        5.7986987821   -2.7156630812    3.7953890524
N        5.1141467380   -3.8023300034    3.7898292297
H        1.8659195295   -1.0930274277   -1.2220100317
H        0.0067260757    0.0370231866   -0.0227801979
H        3.6909462265   -2.1796558796    0.0784171312
H       -0.0260809287    0.0795017862    2.4451711949
H        1.7628744186   -2.0144283186    4.5805586755
H        2.6792123015   -0.4914280725    4.5663059384
H        0.9023004347   -0.4598446289    4.5496036742
19   

C        1.8273474625   -1.0902459373   -0.1360750709
C        0.7957997482   -0.4386859175    0.5397304854
C        2.8592003725   -1.6925847864    0.5894060679
C        0.7965116731   -0.3966445302    1.9370608270
C        2.8822410815   -1.6431000673    1.9916497692
C        1.8291141332   -0.9971011061    2.6798095479
C        3.9681802901   -2.3195676378    2.7367815640
C        1.7974202618   -0.9600216598    4.1878764793
N        4.9622058016   -1.7022724348    3.4484600186
N        4.0708075598   -3.6576991052    2.8548130915
N        5.6715667077   -2.7342688653    3.9808247349
N        5.1592158272   -3.8609273924    3.6388321839
H        1.8292913517   -1.1342043441   -1.2184500143
H       -0.0074482987    0.0290428206   -0.0167474310
H        3.6613444213   -2.2111800850    0.0774406962
H       -0.0149401787    0.1049329879    2.4499798668
H        1.8703197242   -1.9756076676    4.5897199154
H        2.6416416789   -0.3740588152    4.5639837431
H        0.8695630709   -0.5090888138    4.5504950107
19   

C        1.8159270024   -1.1052480225   -0.1279673271
C        0.7917548301   -0.4378133141    0.5412708654
C        2.8469706344   -1.7016493568    0.6027870951
C        0.7987715419   -0.3770216111    1.9371161826
C        2.8835714748   -1.6292174262    2.0052937515
C        1.8315385312   -0.9706701225    2.6858215172
C        3.9687841710   -2.3149232206    2.7343806191
C        1.7861101434   -0.9205072199    4.1934921353
N        4.8011307602   -1.7586530073    3.6708810586
N        4.2317044670   -3.6320631096    2.6076443522
N        5.5817076721   -2.7962893673    4.0770243170
N        5.2546201573   -3.8758808360    3.4646250721
H        1.8125783471   -1.1677808609   -1.2094331937
H       -0.0118145881    0.0252290358   -0.0186545800
H        3.6408062942   -2.2352566265    0.0928353561
H       -0.0100888044    0.1333516521    2.4454581487
H        1.9299207502   -1.9228633638    4.6091803087
H        2.5799935933   -0.2675578618    4.5684927885
H        0.8239603883   -0.5372147385    4.5444003318
19   

C        1.8115600769   -1.1220722111   -0.1177542808
C        0.7970170379   -0.4336636206    0.5421012006
C        2.8336651169   -1.7232022973    0.6206990270
C        0.8056141191   -0.3571096566    1.9362439416
C        2.8746337864   -1.6393703907    2.0247449221
C        1.8294205531   -0.9554532675    2.6944537541
C        3.9599924878   -2.3277345958    2.7434725150
C        1.7671404854   -0.8845849878    4.2010434836
N        4.6510348441   -1.8762608109    3.8395696674
N        4.3910727088   -3.5643991358    2.4127319845
N        5.5133503632   -2.8866434906    4.1321142457
N        5.3644302718   -3.8599793155    3.3098409505
H        1.8087925288   -1.1969838247   -1.1984480562
H       -0.0001397413    0.0335444167   -0.0235028228
H        3.6197032820   -2.2692882469    0.1114845467
H        0.0028135927    0.1701044112    2.4369686825
H        1.9144262780   -1.8792314315    4.6334712463
H        2.5484327328   -0.2163690732    4.5755286756
H        0.7970363863   -0.5071048180    4.5360393108
19   

C        1.8008121533   -1.1430731685   -0.1135878006
C        0.7982317250   -0.4343596759    0.5396753307
C        2.8149769130   -1.7510608351    0.6292617988
C        0.8127668822   -0.3431517446    1.9317024921
C        2.8618877488   -1.6617753798    2.0359765664
C        1.8281938520   -0.9488275322    2.6964931493
C        3.9514987207   -2.3480409588    2.7456013570
C        1.7580303219   -0.8482804895    4.2014574174
N        4.5098278219   -2.0275471256    3.9587106904
N        4.5575342931   -3.4537549456    2.2563246309
N        5.4619607943   -2.9772192399    4.1594642774
N        5.4904297628   -3.8003373541    3.1773273463
H        1.7967793780   -1.2272940473   -1.1936086330
H        0.0070287745    0.0389940817   -0.0291776887
H        3.5911287716   -2.3052203261    0.1136990452
H        0.0192397738    0.2032782158    2.4265878488
H        1.8565563511   -1.8405708837    4.6524324654
H        2.5627102033   -0.2056493420    4.5712146486
H        0.8027893757   -0.4238258410    4.5226549371
19   

C        1.7851214241   -1.1874484463   -0.1204028103
C        0.7952333579   -0.4554599912    0.5233215094
C        2.7929168031   -1.7972298622    0.6288528629
C        0.8181685853   -0.3410828661    1.9123846405
C        2.8473026993   -1.6936119805    2.0374209285
C        1.8268858853   -0.9486340175    2.6856255524
C        3.9413727971   -2.3720542649    2.7462663155
C        1.7602338016   -0.7999966500    4.1871971026
N        4.3618243284   -2.2061839921    4.0441019384
N        4.7209919248   -3.3071917447    2.1543707971
N        5.4021291646   -3.0688870050    4.1883442013
N        5.6104839732   -3.7051975739    3.0967461077
H        1.7779143643   -1.2872297828   -1.1990964819
H        0.0091449602    0.0204401968   -0.0504863001
H        3.5567952719   -2.3632137774    0.1082722219
H        0.0355279970    0.2281291306    2.3988588850
H        1.7762109351   -1.7839582690    4.6657652180
H        2.6102795708   -0.2106964625    4.5441242483
H        0.8410158706   -0.2923603788    4.4923727907
19   

C        1.7690018706   -1.2234260418   -0.1251564129
C        0.7811883589   -0.4865485786    0.5147003089
C        2.7815466406   -1.8227624182    0.6257991745
C        0.8131256802   -0.3543157240    1.9014723732
C        2.8426805552   -1.7077621576    2.0346118930
C        1.8264778898   -0.9514359991    2.6772974018
C        3.9456562309   -2.3727523235    2.7424947441
C        1.7803580581   -0.7543787085    4.1742560467
N        4.2170642857   -2.4062428962    4.0896770993
N        4.8977458642   -3.0862967864    2.0958680308
N        5.3456891369   -3.1542511288    4.2048852081
N        5.7398683632   -3.5478279986    3.0524418041
H        1.7571035156   -1.3348709708   -1.2026727678
H       -0.0083635881   -0.0180443557   -0.0604439353
H        3.5406505973   -2.3925027665    0.1026114570
H        0.0347201917    0.2239463189    2.3840471104
H        1.6934642578   -1.7212422862    4.6791663439
H        2.6876077214   -0.2468291056    4.5157219530
H        0.9217192558   -0.1431235544    4.4655775811
