29   

C        1.1737980404   -1.0437481765    0.1871713788
C        1.5359114542   -2.1914457551    0.8948166295
C        1.0123724562    0.1668158479    0.8650483727
C        1.7281447898   -2.1279504626    2.2791407291
C        1.1999698154    0.2265163523    2.2513327417
C        1.9414812252   -0.1054455307    6.4290097586
C        2.8856773955   -1.1619405518    6.1909935197
C        1.5456122433   -0.9251810162    2.9872827680
C        1.2015942392    0.0118984549    5.2870464126
C       -0.0428085619    0.8342774760    5.2069153462
C       -2.2483067145    1.4706726543    4.3055592181
C       -1.4021903666   -0.8423477492    3.9394479704
N        2.7132778692   -1.6383660248    4.9856193739
N        1.7321341875   -0.8968843487    4.3879068174
N       -1.1475102331    0.5180650312    4.4048414345
O       -0.1681579353    1.7764317741    5.9949470229
H        1.0273428712   -1.0912696783   -0.8863073028
H        1.6710744092   -3.1326094589    0.3731765954
H        0.7473593953    1.0634753576    0.3157492755
H        2.0128799707   -3.0249845016    2.8186515720
H        1.0893105763    1.1820927401    2.7500059555
H        1.7921650351    0.4341067888    7.3573242455
H        3.6072026819   -1.5313223900    6.9105774659
H       -2.8542485066    1.2625800122    3.4180042577
H       -1.8642415485    2.4917493725    4.2092841099
H       -2.8834996061    1.4111944433    5.1949707136
H       -2.4547158012   -1.0996501630    4.0952288790
H       -0.8153874679   -1.5753561465    4.5011145835
H       -1.1801719804   -0.9364375342    2.8722930966
29   

C        1.1639813493   -1.0078244659    0.1712671695
C        1.5425470753   -2.1529861836    0.8740752380
C        0.9909026425    0.1983546299    0.8535096085
C        1.7384987618   -2.0916231376    2.2580393735
C        1.1827904645    0.2561207852    2.2391272220
C        1.8416430013   -0.1680515504    6.4564804853
C        2.7891379931   -1.2227025426    6.2199879423
C        1.5438130380   -0.8935880241    2.9715873374
C        1.1649125257    0.0005662406    5.2839304068
C       -0.0354678080    0.8745839356    5.1241344206
C       -2.2579328896    1.4497813598    4.2111496894
C       -1.4207529635   -0.8932238854    4.0188954419
N        2.6758007661   -1.6443281274    4.9867837416
N        1.7287160745   -0.8712500517    4.3734629259
N       -1.1705002612    0.4950784622    4.3962619958
O       -0.0809562703    1.9386467130    5.7490483772
H        1.0139794006   -1.0535297750   -0.9017873834
H        1.6868932825   -3.0908094251    0.3489424471
H        0.7139212323    1.0938476501    0.3081850694
H        2.0343126200   -2.9879788284    2.7926099590
H        1.0657586118    1.2113854041    2.7366749266
H        1.6595964268    0.3468727465    7.3926217939
H        3.4730390846   -1.6274159176    6.9570986312
H       -2.8671918953    1.1699717660    3.3458453951
H       -1.8622190738    2.4531805629    4.0217619268
H       -2.8932257116    1.4787545378    5.1018665554
H       -2.4748405819   -1.1408433675    4.1795284919
H       -0.8382294417   -1.5873158392    4.6324354299
H       -1.1841980966   -1.0557151439    2.9629589163
29   

C        1.1454391341   -0.9761080193    0.1833819484
C        1.5224089856   -2.1164204342    0.8945810359
C        0.9904971834    0.2385451989    0.8541972495
C        1.7331763218   -2.0420002587    2.2758400927
C        1.1983811482    0.3098662339    2.2366717776
C        1.7945349107   -0.1589855333    6.4883450735
C        2.7295513221   -1.2269376468    6.2587796626
C        1.5558640013   -0.8350579866    2.9794748380
C        1.1735022961    0.0527941478    5.2934849039
C        0.0269390464    0.9823926843    5.0549213552
C       -2.2091841743    1.5285836633    4.1407113537
C       -1.4301034106   -0.8460137047    4.1711797123
N        2.6590745047   -1.6105032893    5.0094423433
N        1.7509629454   -0.8029417044    4.3808963546
N       -1.1522630413    0.5645665725    4.4265726206
O        0.0913661450    2.1411820182    5.4759504359
H        0.9830692038   -1.0318067163   -0.8873777390
H        1.6534533232   -3.0608739250    0.3779832474
H        0.7158566868    1.1308884537    0.3025124833
H        2.0261614838   -2.9359801255    2.8158025877
H        1.0991385981    1.2745791558    2.7194938601
H        1.5941908027    0.3433737304    7.4272628691
H        3.3766914200   -1.6651725803    7.0097823590
H       -2.7899727849    1.2059486581    3.2707539411
H       -1.7892494816    2.5115824235    3.9033281264
H       -2.8774654229    1.6249423470    5.0018866878
H       -2.4922348054   -1.0552739675    4.3331914768
H       -0.8722256671   -1.4944531841    4.8540491300
H       -1.1773405634   -1.1069132773    3.1388329167
29   

C        1.1773522313   -0.9942784692    0.1561689005
C        1.5429844369   -2.1489172221    0.8496019738
C        1.0553291488    0.2153021558    0.8422300025
C        1.7733618620   -2.0939877111    2.2287060524
C        1.2841490131    0.2676053223    2.2221335488
C        1.8058550701   -0.3615989282    6.4940798039
C        2.7304938424   -1.4334931346    6.2402750426
C        1.6279853238   -0.8922531774    2.9491126821
C        1.2447127771   -0.0707515946    5.2871170736
C        0.1549721515    0.9173344362    5.0037230148
C       -2.0969058683    1.4841220564    4.1209636912
C       -1.3954609157   -0.9088407033    4.3140742526
N        2.7070709151   -1.7418747525    4.9681323113
N        1.8384089579   -0.8837426295    4.3497872294
N       -1.0736397505    0.5060135350    4.4754406987
O        0.3357994361    2.1149169581    5.2399922055
H        0.9987983959   -1.0347902483   -0.9126721739
H        1.6494760616   -3.0897005945    0.3208715494
H        0.7906641263    1.1191502429    0.3045609034
H        2.0559357682   -3.0001407534    2.7535896296
H        1.2142882086    1.2314859448    2.7116499177
H        1.5832760234    0.0972071917    7.4498660855
H        3.3393733795   -1.9261025378    6.9895698233
H       -2.6219246890    1.1652845488    3.2149424321
H       -1.6587512824    2.4649190590    3.9101708021
H       -2.8193030736    1.5880585489    4.9362307641
H       -2.4677683939   -1.0714408488    4.4617569353
H       -0.8750600546   -1.5242431694    5.0548595646
H       -1.1250612413   -1.2500910578    3.3098428487
29   

C        1.2177389380   -1.0011177737    0.1140947989
C        1.5974243526   -2.1461447417    0.8153674652
C        1.0793046053    0.2107774960    0.7924963703
C        1.8245840058   -2.0794183471    2.1944730774
C        1.3056505325    0.2749937140    2.1723270053
C        1.7024409326   -0.4469932458    6.4753093034
C        2.6633405405   -1.4867551808    6.2237941712
C        1.6627190636   -0.8753070365    2.9084394310
C        1.2135677790   -0.1039027503    5.2510641705
C        0.1515225683    0.9037023445    4.9194406818
C       -2.1453025767    1.4453094681    4.1289314213
C       -1.4526433006   -0.9386733326    4.4723941510
N        2.7232210906   -1.7279321588    4.9383513282
N        1.8712832429   -0.8589279695    4.3103314219
N       -1.1158577121    0.4813457501    4.5072342410
O        0.4045305853    2.1100874189    4.9669861610
H        1.0413692611   -1.0505269357   -0.9547028666
H        1.7172149237   -3.0887667271    0.2928549155
H        0.8045164000    1.1081300891    0.2490848254
H        2.1176548704   -2.9794585406    2.7239466859
H        1.2265166556    1.2431554609    2.6510649119
H        1.4210884056   -0.0359040204    7.4371094913
H        3.2392131445   -2.0045661968    6.9821316168
H       -2.2405331155    1.4803031226    3.0391741426
H       -1.9135932871    2.4523816395    4.4893462693
H       -3.1088371761    1.1612811010    4.5632276024
H       -2.5330885195   -1.0797650093    4.5749661617
H       -0.9785376431   -1.4790553866    5.2979922458
H       -1.1322478696   -1.3804945844    3.5233432009
29   

C        1.3473677941   -1.0828283618    0.0207573502
C        1.7223800663   -2.2035489469    0.7620862844
C        1.1815819501    0.1452674850    0.6622799350
C        1.9182893374   -2.0958190852    2.1434517354
C        1.3766024507    0.2500099163    2.0444607297
C        1.6085271063   -0.4672305307    6.3885371929
C        2.6124493572   -1.4722380058    6.1708094199
C        1.7299601721   -0.8738930848    2.8211885659
C        1.1899171973   -0.1014393362    5.1446022832
C        0.1405804474    0.9081074520    4.7721946150
C       -2.2073632975    1.4634960837    4.1826880030
C       -1.5483205116   -0.9059499724    4.6865679285
N        2.7575814809   -1.6752496539    4.8860214868
N        1.9169162870   -0.8176668693    4.2259872598
N       -1.1767349728    0.4991927971    4.5546533430
O        0.4462165882    2.0917545157    4.6070035900
H        1.1962146556   -1.1631642240   -1.0499887364
H        1.8634970407   -3.1589280259    0.2689956786
H        0.9112533225    1.0249481378    0.0886000833
H        2.2091921080   -2.9784138492    2.7024537961
H        1.2816923997    1.2315135434    2.4889281763
H        1.2624708815   -0.0862799941    7.3414877742
H        3.1579705125   -1.9928356100    6.9494033909
H       -2.3400403537    1.4695535346    3.0963593824
H       -1.9469921591    2.4748395929    4.5109129608
H       -3.1592586599    1.2063342478    4.6575603651
H       -2.6219803899   -1.0048911794    4.8739599293
H       -1.0305761572   -1.3761480176    5.5284095688
H       -1.3029711817   -1.4476506694    3.7672495854
29   

C        1.5948086161   -1.1314934248   -0.1230959588
C        1.8735524373   -2.2567454087    0.6527315748
C        1.4355364586    0.1094284288    0.4945047204
C        1.9794996399   -2.1395117499    2.0432509284
C        1.5419597571    0.2229308572    1.8856800270
C        1.4482480700   -0.5482034189    6.2533924543
C        2.4848382971   -1.5268128477    6.0811849814
C        1.7957307751   -0.9027477765    2.6957442132
C        1.1108955451   -0.1518180714    4.9932783361
C        0.0592284850    0.8472490384    4.6035484399
C       -2.3206967557    1.4849976601    4.3322652419
C       -1.7126015892   -0.8470069131    5.0212708326
N        2.7197865638   -1.6928993333    4.8052974893
N        1.9070760131   -0.8366558515    4.1082084460
N       -1.2934585123    0.5069623395    4.6734308118
O        0.3782588206    1.9764862922    4.2209970149
H        1.5143893600   -1.2180888146   -1.2009360637
H        2.0109057867   -3.2225376974    0.1793968743
H        1.2415668863    0.9929163947   -0.1036719856
H        2.1990852841   -3.0253554714    2.6288502757
H        1.4663497316    1.2131020363    2.3101506201
H        1.0289305305   -0.2022124484    7.1900480039
H        2.9879120953   -2.0563284705    6.8820239095
H       -2.5416277916    1.4425909081    3.2613081337
H       -2.0001842884    2.4996911138    4.5901688627
H       -3.2378903658    1.2827939468    4.8943842908
H       -1.8834180096   -0.9271219035    6.0991771267
H       -0.9664449148   -1.5893629670    4.7208961461
H       -2.6386484495   -1.1013046858    4.4960114995
29   

C        1.7710606187   -1.1430313830   -0.2347684248
C        1.9396222579   -2.2804910500    0.5552500739
C        1.6576827249    0.1081796877    0.3729633745
C        1.9791403173   -2.1641566514    1.9492674750
C        1.7010182836    0.2203528467    1.7678307535
C        1.3234727244   -0.6494590825    6.1307724499
C        2.4134160958   -1.5713046507    5.9822880353
C        1.8379652484   -0.9158509333    2.5891433692
C        1.0225179113   -0.2308855503    4.8669839108
C       -0.0455616581    0.7431753639    4.4728855156
C       -2.4143039538    1.4717883845    4.4737289830
C       -1.8022865223   -0.8111176520    5.3052528982
N        2.7158615764   -1.6863348264    4.7158679968
N        1.8956230142   -0.8500845275    4.0033158437
N       -1.3848978434    0.4828906324    4.7757218158
O        0.2399787320    1.8000665705    3.9018810902
H        1.7417752442   -1.2286775692   -1.3152411833
H        2.0440436710   -3.2545090152    0.0905064948
H        1.5499903522    0.9998027241   -0.2346794236
H        2.1165584513   -3.0571719981    2.5487834130
H        1.6733093955    1.2136315170    2.1920913145
H        0.8505362875   -0.3484496214    7.0573143946
H        2.9046517426   -2.0992487133    6.7914654326
H       -2.7677908578    1.3480811503    3.4454956331
H       -2.0296239054    2.4893040592    4.5989847717
H       -3.2607714885    1.3595208152    5.1585727063
H       -1.8027696106   -0.7932164639    6.3993934131
H       -1.1446788423   -1.6147143971    4.9584234674
H       -2.8104434987   -1.0547841584    4.9551966742
29   

C        1.8731364159   -1.2133556665   -0.2512377404
C        3.0025217497   -1.5391379289    0.5010789905
C        0.6760260134   -0.9051474876    0.3969932076
C        2.9329841345   -1.5526212599    1.8988077308
C        0.6108547741   -0.9133160567    1.7954386428
C        1.1145698984   -1.0142014732    6.1068991235
C        2.1168542848   -2.0364830914    5.9716027348
C        1.7430856025   -1.2256004337    2.5779363879
C        0.9058705891   -0.5408580848    4.8435311090
C        0.1120838850    0.6510356256    4.4087066115
C       -1.9427111339    2.0343476194    4.4716680080
C       -1.9304478109   -0.2417890994    5.5190230251
N        2.4656110806   -2.1453334494    4.7157373569
N        1.7121578722   -1.2573757605    3.9944477526
N       -1.2155258259    0.8162903612    4.8137613829
O        0.6328949512    1.5145926555    3.7006846186
H        1.9250341533   -1.2017642567   -1.3341187112
H        3.9357190643   -1.7797301701    0.0044532997
H       -0.2062745967   -0.6602352408   -0.1834040524
H        3.8187123475   -1.8058768359    2.4707882723
H       -0.3401971541   -0.6906615049    2.2603155783
H        0.6846186838   -0.6508096500    7.0317578398
H        2.5391258927   -2.6126628660    6.7867812805
H       -2.4248125261    1.9265692294    3.4952746605
H       -1.2705625518    2.8984049627    4.4437889360
H       -2.7068935127    2.2444507786    5.2267009165
H       -1.8032476070   -0.1327217573    6.6004955324
H       -1.5776793110   -1.2315516364    5.2115540193
H       -2.9987791254   -0.1981017689    5.2841509960
29   

C        1.9625778241   -1.2952204673   -0.2717922792
C        3.0938142814   -1.5121755094    0.5166038067
C        0.7251113088   -1.0803352245    0.3380665331
C        2.9852921715   -1.5110231670    1.9118682471
C        0.6212950410   -1.0724819413    1.7343234442
C        0.9848953391   -1.0989086498    6.0518406054
C        2.0298546846   -2.0806815382    5.9480298433
C        1.7529997300   -1.2752119307    2.5510857142
C        0.8075588372   -0.6158368565    4.7854583254
C        0.0318693726    0.5782836466    4.3326258500
C       -1.9026028030    2.1151940179    4.4971586799
C       -1.9508788510   -0.0781161348    5.6998116758
N        2.4397565897   -2.1547262137    4.7091427190
N        1.6818332730   -1.2894420980    3.9657088271
N       -1.2271041514    0.8751587302    4.8662177957
O        0.4936794417    1.3300982378    3.4714707121
H        2.0446850794   -1.2947331174   -1.3528186960
H        4.0581045809   -1.6790570941    0.0501187410
H       -0.1575807993   -0.9186743184   -0.2700534891
H        3.8710886120   -1.6796242959    2.5140605663
H       -0.3537625234   -0.9177501407    2.1777125487
H        0.5196639799   -0.7581392794    6.9677661421
H        2.4391876404   -2.6509626351    6.7738885513
H       -2.4620343289    1.9801616235    3.5664489742
H       -1.1811752676    2.9285107659    4.3653924479
H       -2.5936808571    2.4216845100    5.2887948573
H       -1.7256844526    0.0904797451    6.7573486625
H       -1.6975743071   -1.1091868427    5.4329617964
H       -3.0297179477    0.0315902568    5.5496509573
29   

C        2.1890475674   -1.5700466926   -0.1653550352
C        3.2987760340   -1.6410130065    0.6786683105
C        0.9092873832   -1.4550679424    0.3818679446
C        3.1261846642   -1.5939093177    2.0666082225
C        0.7412419907   -1.4006638482    1.7709607750
C        0.8900675349   -1.2537646702    6.0908242027
C        1.9789249509   -2.1904047793    6.0529356781
C        1.8486394978   -1.4548082291    2.6412542673
C        0.7604808170   -0.7808675991    4.8125864785
C        0.0067297344    0.4053014798    4.3073603893
C       -1.7969580042    2.0911589966    4.4691394389
C       -1.9124012496    0.0252660084    5.8676537273
N        2.4656986589   -2.2461550572    4.8425272940
N        1.7132889139   -1.4207112316    4.0503966737
N       -1.1764994229    0.8466721223    4.9137435180
O        0.3959766508    1.0184575997    3.3103786921
H        2.3207075620   -1.6046955009   -1.2408743480
H        4.2953019425   -1.7298556543    0.2611602478
H        0.0439957234   -1.4056338652   -0.2690874087
H        3.9940952607   -1.6498553691    2.7140592003
H       -0.2607736436   -1.3198525223    2.1728993850
H        0.3783977181   -0.9269249860    6.9859929883
H        2.3643982598   -2.7393309130    6.9043539992
H       -2.3983314713    1.9161483405    3.5717538293
H       -1.0352281496    2.8462155526    4.2475950092
H       -2.4390824735    2.4999103630    5.2557908217
H       -1.6017402137    0.2553870784    6.8913682088
H       -1.7635804837   -1.0406324799    5.6674819748
H       -2.9870417299    0.2147560822    5.7794097145
29   

C        2.7420122673   -0.9867768856   -0.0930222123
C        2.7254380153    0.0359214390    0.8584208642
C        2.2625917759   -2.2540391342    0.2441861368
C        2.2196678604   -0.2065563099    2.1415887446
C        1.7648362899   -2.4939068949    1.5298792050
C        0.5217643016   -1.5770176404    5.8752412741
C        1.2578278982   -2.7951290137    5.6852728975
C        1.7141937034   -1.4726266159    2.4967085964
C        0.5018802141   -0.9512793892    4.6548423656
C       -0.3477061885    0.1682939285    4.1472933270
C       -1.9737587771    2.0110473352    4.4251664577
C       -0.7311186186    1.1696014592    6.4148540129
N        1.6251444339   -2.8929999220    4.4376722743
N        1.2167671990   -1.7581934030    3.7907118083
N       -1.0411571480    1.0430141273    4.9967788292
O       -0.4298266536    0.3979882272    2.9376911475
H        3.1260465684   -0.7981437608   -1.0890860244
H        3.1013425231    1.0200232080    0.6034282047
H        2.2728449836   -3.0527851172   -0.4887083553
H        2.2175971594    0.5960259046    2.8687086520
H        1.3964311409   -3.4810247654    1.7854750596
H        0.0056371694   -1.3155855042    6.7878147651
H        1.4447590315   -3.5411118477    6.4490793575
H       -2.6847112695    2.3528943589    5.1840463465
H       -2.5559402645    1.5551964132    3.6172569388
H       -1.4297769356    2.8748114522    4.0304929134
H        0.3328261739    0.9903943585    6.5998112426
H       -1.3372686299    0.4745290855    7.0038865052
H       -0.9408348792    2.1873497971    6.7595396266
29   

C        2.7496575450   -0.9420417838   -0.0462680166
C        2.5591393874    0.0893479565    0.8758696754
C        2.4208221802   -2.2528355897    0.3038518653
C        2.0308139616   -0.1890491610    2.1424028344
C        1.8999991337   -2.5281819747    1.5732401204
C        0.3565483255   -1.6775392221    5.8404174299
C        1.1440703077   -2.8686702806    5.6810475049
C        1.6772490754   -1.5026319566    2.5115282212
C        0.3790611164   -1.0498206716    4.6238956977
C       -0.4803542886    0.0571704468    4.1083579227
C       -1.9463165318    2.0252060915    4.4215302593
C       -0.5030327108    1.2515673920    6.3073369323
N        1.5794983000   -2.9437567978    4.4522940679
N        1.1583423117   -1.8218538512    3.7898414179
N       -0.9987274444    1.0489809204    4.9510547818
O       -0.7360489795    0.1454218243    2.9048340872
H        3.1517610632   -0.7263646809   -1.0296680400
H        2.8185180893    1.1079140500    0.6109707942
H        2.5655544420   -3.0585852215   -0.4068443746
H        1.9000016439    0.6252310297    2.8437874008
H        1.6478315014   -3.5494292937    1.8360263772
H       -0.2178853618   -1.4221263224    6.7206091095
H        1.3199077412   -3.6122119360    6.4498456742
H       -2.5405869219    2.4592399719    5.2318889717
H       -2.6452939061    1.5482160102    3.7262967033
H       -1.4141623356    2.8266012673    3.8998282967
H        0.5470723923    0.9541271176    6.3919833875
H       -1.1057864388    0.6856757471    7.0242188608
H       -0.5517642170    2.3125064259    6.5729960766
29   

C        2.7491968519   -0.8179947736    0.0333204850
C        2.4327781581    0.2010325670    0.9338042134
C        2.5432596775   -2.1500606166    0.3959891401
C        1.9018736884   -0.1115242984    2.1911041130
C        2.0192944640   -2.4593954031    1.6562784940
C        0.2473073344   -1.7243923282    5.8556301059
C        1.0924923440   -2.8790641953    5.7176707679
C        1.6719845535   -1.4493195404    2.5738117964
C        0.3014002958   -1.0834634010    4.6494969952
C       -0.5526318550    0.0291167103    4.1342942633
C       -1.8486641969    2.1144408727    4.4559358470
C       -0.2841817889    1.3338428549    6.2454014484
N        1.5938250305   -2.9132854094    4.5110706233
N        1.1515583578   -1.8024286367    3.8430418466
N       -0.9114134019    1.1095449700    4.9478131220
O       -0.9594893640    0.0132212175    2.9705622574
H        3.1540900763   -0.5761909534   -0.9428723782
H        2.5978008052    1.2367099639    0.6595192914
H        2.7860008818   -2.9465822477   -0.2982319213
H        1.6802811257    0.6992543599    2.8728663180
H        1.8626933097   -3.4977137964    1.9265881361
H       -0.3714632670   -1.4863356957    6.7111649410
H        1.2646049949   -3.6257473432    6.4842593421
H       -2.3692579154    2.5904935652    5.2929357629
H       -2.6126972029    1.6570823757    3.8184611375
H       -1.3175531169    2.8804615728    3.8827451928
H        0.7422507857    0.9534401882    6.2597899527
H       -0.8630096993    0.8508263035    7.0386055107
H       -0.2270248695    2.4064177891    6.4570464200
29   

C        2.7665806019   -0.7653478514    0.1282794056
C        2.3336976735    0.2277670244    1.0084137325
C        2.6853309750   -2.1065237962    0.5054966600
C        1.8114659702   -0.1201544633    2.2598927546
C        2.1687184734   -2.4512277351    1.7596695634
C        0.2125666897   -1.8669729174    5.8991231990
C        1.1247348302   -2.9718113078    5.7757904465
C        1.7060922236   -1.4699981600    2.6580631803
C        0.2767980633   -1.2081992148    4.7051343263
C       -0.5889520402   -0.0975406828    4.1991355012
C       -1.7205791341    2.0869694140    4.5040077827
C       -0.0285454465    1.3067658644    6.1780140486
N        1.6769708394   -2.9543680942    4.5902829276
N        1.1959826240   -1.8599714072    3.9214251208
N       -0.7894878954    1.0590881972    4.9583088999
O       -1.1541739580   -0.2030682764    3.1093466093
H        3.1659718171   -0.4962107825   -0.8430647860
H        2.4032267369    1.2714125578    0.7233449029
H        3.0197146892   -2.8832901462   -0.1728844292
H        1.5070501990    0.6787475822    2.9226891973
H        2.1098204778   -3.4973110793    2.0390527318
H       -0.4408609037   -1.6604279795    6.7373622182
H        1.3096543628   -3.7205488174    6.5373759362
H       -2.1661466040    2.5997722332    5.3623084458
H       -2.5426420550    1.6485189776    3.9286541811
H       -1.2008940630    2.8198769203    3.8794215825
H        0.9707676018    0.8635148302    6.1189613966
H       -0.5548272297    0.8971015285    7.0456880575
H        0.1093487482    2.3826573649    6.3258059549
29   

C        2.6904897697   -0.6341021068    0.1097766850
C        1.3187711570   -0.4488612743    0.2881217182
C        3.4369955234   -1.2612586576    1.1076589908
C        0.6971432166   -0.8791610493    1.4664858428
C        2.8121606149   -1.6869434790    2.2852662862
C       -0.0710073162   -1.9974568278    5.7200146170
C        0.7399447033   -3.1610604869    5.5002764889
C        1.4337643057   -1.4858796180    2.5025971777
C        0.0332006179   -1.2568449377    4.5782598119
C       -0.6284140867    0.0574184245    4.2958157052
C       -1.0906077445    2.4177559434    4.8943256050
C        0.6622381368    1.1277844264    6.1353279995
N        1.2854989370   -3.0930517368    4.3144125876
N        0.8466647000   -1.9444739466    3.7077947572
N       -0.3786957399    1.1631458168    5.1133927531
O       -1.4220966647    0.1793742016    3.3577346148
H        3.1704929874   -0.3044550688   -0.8048525667
H        0.7271599999    0.0165448610   -0.4923990178
H        4.5003200531   -1.4229430799    0.9705400905
H       -0.3758731446   -0.7728090710    1.5350996612
H        3.4054434981   -2.1778421658    3.0486878266
H       -0.6483135420   -1.7676195868    6.6069470118
H        0.8872040758   -3.9674677662    6.2093798060
H       -1.1673608469    2.9787381923    5.8310909642
H       -2.1112625669    2.2338880147    4.5429831696
H       -0.5632515392    3.0278821120    4.1546262347
H        1.4736438873    0.4484791426    5.8548758447
H        0.2434049872    0.8113056111    7.0954691791
H        1.1083332370    2.1203472572    6.2541064271
29   

C        2.6615060605   -0.4987742580    0.2657598347
C        1.3000555310   -0.2753653054    0.4736186129
C        3.3928512229   -1.2224548233    1.2076814774
C        0.6739652277   -0.7632290316    1.6266868322
C        2.7635935338   -1.7089011130    2.3591718411
C       -0.2096680005   -2.1292125756    5.7537304492
C        0.6672989129   -3.2475824391    5.5486954898
C        1.3953505591   -1.4738303890    2.6077276701
C       -0.0835061521   -1.3596964462    4.6353602116
C       -0.7724555528   -0.0572251584    4.3434924891
C       -1.0515937247    2.3744266180    4.7351571131
C        0.8004816979    1.1206422322    5.8672248825
N        1.2690201440   -3.1236242052    4.3940402128
N        0.8049128516   -1.9821670550    3.7929969639
N       -0.3626765144    1.1131876338    4.9858215464
O       -1.7060948214   -0.0077137179    3.5378058060
H        3.1451666787   -0.1223773397   -0.6287254438
H        0.7195754754    0.2663890358   -0.2649880790
H        4.4485585529   -1.4109833961    1.0476689246
H       -0.3918539081   -0.6126271775    1.7142142394
H        3.3486290710   -2.2712343816    3.0784626541
H       -0.8370859318   -1.9438098474    6.6167671121
H        0.8183278896   -4.0633553557    6.2462035144
H       -0.9871411799    3.0227110614    5.6147464074
H       -2.1147667559    2.2092230173    4.5321209720
H       -0.6010412668    2.8872961220    3.8798620797
H        1.5343414439    0.3642571906    5.5715123364
H        0.4947938938    0.9377187757    6.9019165601
H        1.3076686855    2.0891613362    5.8137463577
29   

C        2.5649623299   -0.2870960084    0.4779893678
C        1.2080055612   -0.0651032168    0.7158818140
C        3.2970409228   -1.0886783860    1.3541872473
C        0.5871119439   -0.6317856513    1.8351517691
C        2.6736248751   -1.6552439973    2.4715648818
C       -0.3609870852   -2.2752633649    5.8150112360
C        0.5590031894   -3.3561554714    5.5901295113
C        1.3111637769   -1.4241492063    2.7513050047
C       -0.2064912526   -1.4432217280    4.7471847257
C       -0.9112521340   -0.1459593094    4.4653310482
C       -1.0007244153    2.3324156845    4.5857651741
C        0.9521721703    1.0815889289    5.5482683305
N        1.2044237456   -3.1559669666    4.4692806811
N        0.7277699842   -1.9998659459    3.9088703224
N       -0.3346190086    1.0629927723    4.8598701692
O       -1.9747776908   -0.1378004425    3.8403775780
H        3.0452042355    0.1521391393   -0.3893267802
H        0.6281549556    0.5392539869    0.0270037399
H        4.3493663154   -1.2745072911    1.1701211494
H       -0.4758494775   -0.4693011019    1.9516601316
H        3.2597400999   -2.2750152545    3.1412137566
H       -1.0317363920   -2.1537089392    6.6566256011
H        0.7067622299   -4.2019161534    6.2517025903
H       -0.8324082005    3.0369278853    5.4061703256
H       -2.0835197325    2.2028754086    4.4899236952
H       -0.6141590287    2.7656608075    3.6580704626
H        1.0362704310    0.2507479824    6.2556916899
H        1.0687876650    2.0055473084    6.1230102764
H        1.7683613285    1.0170360200    4.8213285009
29   

C        2.5195859305   -0.1958250755    0.6064844597
C        1.1574622940   -0.0135027613    0.8502606909
C        3.2744950472   -0.9948433473    1.4659623194
C        0.5539008465   -0.6169273922    1.9597045218
C        2.6688406798   -1.5982460903    2.5737034474
C       -0.4553530372   -2.4056338249    5.8291920283
C        0.5166145717   -3.4436419051    5.6159507291
C        1.3023352790   -1.4062040344    2.8594286987
C       -0.2625598471   -1.5171608891    4.8148237542
C       -0.9730050314   -0.2187900299    4.5643216072
C       -0.9752333455    2.2685893220    4.5005697729
C        1.0298251507    1.0241929778    5.3459238614
N        1.2242567230   -3.1702057356    4.5489132511
N        0.7359187914   -2.0097754997    4.0101018349
N       -0.3191616402    0.9963552507    4.7886130627
O       -2.1226996172   -0.2166835826    4.1173351724
H        2.9868578834    0.2725826276   -0.2526587465
H        0.5615171873    0.5896215214    0.1741395577
H        4.3309626398   -1.1495055764    1.2766004408
H       -0.5129474378   -0.4820590404    2.0877664769
H        3.2709925121   -2.2149350431    3.2320415661
H       -1.1768935472   -2.3414321149    6.6344686615
H        0.6552164859   -4.3120759896    6.2495478914
H       -0.7831590176    2.9854876187    5.3048375777
H       -2.0611187766    2.1579066979    4.4203487147
H       -0.5970191177    2.6781174384    3.5587134390
H        1.1705225756    0.2274820485    6.0834009125
H        1.2140783416    1.9730359813    5.8592690836
H        1.7711835731    0.9101106857    4.5484664697
29   

C        2.4917607429   -0.1853969522    0.6537648202
C        1.1289358615   -0.0171037908    0.9048593733
C        3.2608141436   -0.9736803752    1.5110109518
C        0.5387559067   -0.6240151100    2.0195785007
C        2.6683888822   -1.5812435256    2.6236172980
C       -0.5426447165   -2.4975077393    5.7931795780
C        0.4584372833   -3.5110517104    5.5960543003
C        1.3018965558   -1.4029745554    2.9155845013
C       -0.3044776188   -1.5586529115    4.8350289968
C       -1.0105165632   -0.2511427580    4.6457890308
C       -0.9971425087    2.2271591210    4.4742335092
C        1.0716709624    1.0113982522    5.1795469476
N        1.2253946774   -3.1807412155    4.5877578669
N        0.7459152466   -2.0083626394    4.0691247716
N       -0.3217395325    0.9626143688    4.7465515601
O       -2.2195759183   -0.2362045782    4.3993686219
H        2.9490117109    0.2858935566   -0.2092246229
H        0.5230470960    0.5783623460    0.2307721609
H        4.3179015956   -1.1168207785    1.3159525243
H       -0.5281035322   -0.4986838000    2.1598067113
H        3.2796614739   -2.1901737256    3.2808973730
H       -1.3066942807   -2.4738508929    6.5608001562
H        0.5748939860   -4.4025658500    6.2014322324
H       -1.3368441385    2.6834537475    5.4089612007
H       -1.8601125093    2.0874895157    3.8153332847
H       -0.3134979672    2.9152066061    3.9668866021
H        1.3118893472    0.1788036448    5.8484151776
H        1.2615079869    1.9334270906    5.7380413474
H        1.7418247407    0.9821452720    4.3146281408
29   

C        0.8285947100   -1.7965530254    0.3697111928
C        0.0697891018   -2.2706502096    1.4415534859
C        1.8927764926   -0.9250809850    0.6069285808
C        0.3657717216   -1.8627626558    2.7475317225
C        2.1891168063   -0.5216126004    1.9135361080
C        1.6508278386   -0.1068240967    6.4780567087
C        2.9988993885   -0.0064767632    5.9880041495
C        1.4212317526   -0.9636253699    3.0081652618
C        0.8812775643   -0.3899416200    5.3891353612
C       -0.6118978269   -0.4657965447    5.3659277588
C       -2.8276942796    0.0782691573    4.4023259751
C       -0.7956632372    1.2890763971    3.5954813965
N        3.0132192001   -0.2201393584    4.6968206074
N        1.7330983056   -0.5135367663    4.3132439591
N       -1.3797433954    0.2516432876    4.4409105380
O       -1.1962928435   -1.1337085402    6.2242191178
H        0.5985718254   -2.1114003287   -0.6421956835
H       -0.7461389689   -2.9624856240    1.2635616464
H        2.4918143331   -0.5605039313   -0.2202810671
H       -0.2241081064   -2.2741528301    3.5577491566
H        3.0192610066    0.1556137038    2.0833143633
H        1.3115551864    0.0530309375    7.4946209128
H        3.8678861753    0.2336412685    6.5897110501
H       -3.3101601393    0.7602036702    5.1092140043
H       -3.1058947932   -0.9507257786    4.6528500003
H       -3.2058685696    0.2798043138    3.3950483668
H       -0.5722139813    0.8930680387    2.6000091688
H        0.1200278112    1.6965106024    4.0353443808
H       -1.4944550157    2.1248780685    3.4892669952
29   

C        0.8403557990   -1.7953385401    0.3554907320
C        0.0542602842   -2.2390948570    1.4210640876
C        1.9131774227   -0.9355374523    0.5972067534
C        0.3323051506   -1.8125310418    2.7252376199
C        2.1920739199   -0.5145913656    1.9020078708
C        1.6007787213   -0.1432502492    6.4680374162
C        2.9573603181   -0.0758725627    5.9978632435
C        1.3975543132   -0.9268764412    2.9888011932
C        0.8285750224   -0.3507885334    5.3626327906
C       -0.6643652449   -0.3104450103    5.3607007548
C       -2.8701293018    0.2229803118    4.3842612833
C       -0.8168303432    1.2629994120    3.4198822941
N        2.9788924567   -0.2352534725    4.6995900503
N        1.6935603540   -0.4650112989    4.2922380453
N       -1.4145244106    0.3164134268    4.3575070162
O       -1.2704062996   -0.7547579636    6.3405667141
H        0.6245239636   -2.1241691650   -0.6551146396
H       -0.7691565401   -2.9209211051    1.2391362253
H        2.5326962090   -0.5940304466   -0.2247949979
H       -0.2794525996   -2.1936261537    3.5341283275
H        3.0296090140    0.1521908475    2.0771213734
H        1.2554173775    0.0018867260    7.4850485583
H        3.8270515873    0.1076026022    6.6182019251
H       -3.2842138265    0.9505087085    5.0892795083
H       -3.1865970606   -0.7824516487    4.6812941309
H       -3.2824771872    0.4146894358    3.3885422450
H       -0.6564013795    0.7927375996    2.4449560059
H        0.1338643780    1.6539207851    3.7952246513
H       -1.4787589085    2.1241737493    3.2840578370
29   

C        0.8726206931   -1.7710409501    0.3557224584
C        0.0923763786   -2.2267277491    1.4209107732
C        1.9336759662   -0.8966973242    0.5981157372
C        0.3648869196   -1.7978674091    2.7256681489
C        2.2073160974   -0.4740199846    1.9034002979
C        1.6356216671   -0.2560155329    6.4841671219
C        2.9905023647   -0.1842098496    6.0114489519
C        1.4187006077   -0.8992300448    2.9891091593
C        0.8486586548   -0.3790486702    5.3747629033
C       -0.6385502552   -0.2458099821    5.4150934510
C       -2.8663125445    0.2413285295    4.4763738837
C       -0.8441105864    1.1833561475    3.3703985170
N        3.0021869335   -0.2591248124    4.7061106520
N        1.7112774910   -0.4421551600    4.2940416128
N       -1.4114329456    0.2891689657    4.3757827844
O       -1.2151247553   -0.4913273187    6.4788148774
H        0.6614711245   -2.1015580371   -0.6553351521
H       -0.7220707908   -2.9189046432    1.2378165372
H        2.5485352044   -0.5458548052   -0.2234851887
H       -0.2419896878   -2.1827677098    3.5365878198
H        3.0364377502    0.2026449487    2.0808866458
H        1.2999092863   -0.1509645013    7.5095640211
H        3.8661662061   -0.0535544145    6.6367363248
H       -3.2268728164    1.0287274227    5.1457570501
H       -3.1922048066   -0.7308026806    4.8612383425
H       -3.3217224173    0.3735722632    3.4897973904
H       -0.7366277638    0.6705797289    2.4099440340
H        0.1268351885    1.5772760200    3.6853467718
H       -1.4998923464    2.0479730396    3.2266290126
29   

C        0.9088704346   -1.7442754017    0.3592055332
C        0.1299044332   -2.2120184558    1.4203934945
C        1.9546560824   -0.8528813195    0.6067880065
C        0.3887182674   -1.7784345512    2.7265123246
C        2.2147045506   -0.4257414405    1.9133771015
C        1.6306092960   -0.3522692024    6.4976229242
C        2.9881991529   -0.2890695688    6.0329204359
C        1.4270083678   -0.8636033517    2.9942629676
C        0.8396798440   -0.3864030081    5.3829921666
C       -0.6360253400   -0.1487654662    5.4518281987
C       -2.8833158261    0.2753375041    4.5415578887
C       -0.8961311784    1.1201994357    3.3142005237
N        3.0022401234   -0.2829180476    4.7260955950
N        1.7089684218   -0.4093213094    4.3016038114
N       -1.4326200324    0.2812962993    4.3819817243
O       -1.1724074236   -0.1844767379    6.5623258979
H        0.7087824341   -2.0785510148   -0.6528739800
H       -0.6727095680   -2.9167095719    1.2329227781
H        2.5686961744   -0.4930190206   -0.2115393582
H       -0.2164708347   -2.1685068349    3.5364156006
H        3.0330306416    0.2623896161    2.0969545543
H        1.2980855617   -0.2809227313    7.5271146515
H        3.8645993839   -0.2170961808    6.6666246515
H       -3.2027867668    1.1299324205    5.1464956515
H       -3.2101107529   -0.6484942016    5.0305939571
H       -3.3752592126    0.3235017793    3.5649068808
H       -0.8295567940    0.5627201041    2.3754123659
H        0.0878364277    1.5211757364    3.5745679381
H       -1.5504267985    1.9828555270    3.1527553666
