35

C     -1.78562    1.16235   -4.88064
C     -1.05174    2.33760   -5.07197
C     -2.09956    0.72615   -3.58673
C     -0.97672    2.66343   -2.68934
C     -0.63485    3.10115   -3.97230
C     -1.68816    1.47471   -2.47294
C      1.00150   -1.38784   -0.96538
C     -1.09594    0.04786    1.05172
C      1.65952   -2.47206   -1.38709
C      0.20691    4.39055   -4.15396
C      1.63044   -0.18874   -0.27628
C     -0.49151   -1.14540   -1.11942
C      0.44404    1.77043    0.90110
C      0.58320    0.94255   -0.37217
C     -0.76920    0.20141   -0.43545
C     -1.95354    0.99993   -1.06408
O      0.57537    4.94193   -3.07869
O     -1.86039   -0.73505    1.57317
O      0.42859    4.72518   -5.34847
O     -0.41473    0.98374    1.77799
H     -2.11591    0.57728   -5.73804
H     -0.78516    2.69636   -6.06243
H     -2.67287   -0.18910   -3.44264
H     -0.65790    3.29410   -1.86215
H      1.14303   -3.30066   -1.86777
H      2.73798   -2.56394   -1.27346
H      1.81587   -0.43703    0.77789
H      2.59144    0.09341   -0.71564
H     -0.74183   -1.06979   -2.18211
H     -1.09962   -1.94513   -0.68495
H      1.38360    1.93310    1.43423
H     -0.03953    2.73496    0.72083
H      0.75803    1.56766   -1.24789
H     -2.17402    1.86282   -0.42491
H     -2.83426    0.34946   -1.02496
