66

C     -9.91863   -1.91796    8.31116
C     -7.89509   -2.97426    9.16525
C     -6.51539   -3.16546    9.16244
C     -6.29879   -1.52406    7.38916
C     -8.49027   -2.06788    8.27529
C     -7.67596   -1.33808    7.38345
C     -5.72140   -2.44464    8.26999
C     -3.54303   -2.52994    9.44346
C     -3.50746   -2.90695    7.14899
C      3.93563    3.24368    6.20619
C      1.76559    2.55835    5.28972
C      2.93249    0.99184    6.75942
C      1.45603    1.40292    4.34304
C      2.59480   -0.13777    5.78424
C     -2.08889   -2.75343    9.02822
C     -1.55284   -4.00986    9.73462
C     -1.25539   -1.51175    9.37673
C      7.15421    3.67766    7.95159
C      5.12886    2.87614    7.10029
C     -0.65744   -1.92669    5.93430
C      0.48272   -2.21366    4.95453
C     -1.09453   -3.18830    6.68483
C      0.94107   -0.96040    4.19975
C     -8.29163   -0.34399    6.42336
N    -11.07797   -1.83086    8.37608
N     -4.31042   -2.62245    8.28492
N     -2.22609   -2.95436    7.57913
N      2.97277    2.27078    6.06195
N      1.34460    0.13998    5.07997
O     -3.94965   -2.31744   10.56945
O      3.86007    4.33358    5.65215
O      6.02997    3.95102    7.13240
F     -7.35336    0.26235    5.66037
F     -9.16869   -0.94041    5.58390
F     -8.96357    0.63077    7.08078
S     -4.07017   -3.16484    5.60982
H     -8.52263   -3.53098    9.85316
H     -6.05866   -3.86537    9.85276
H     -5.67393   -0.96196    6.70828
H      1.93014    3.48372    4.73873
H      0.92012    2.70476    5.97633
H      2.16648    1.02467    7.54835
H      3.89079    0.77787    7.23121
H      0.50306    1.59951    3.84138
H      2.24184    1.35035    3.56595
H      3.43702   -0.26866    5.07660
H      2.49396   -1.06631    6.35393
H     -0.50194   -4.17734    9.48281
H     -2.12652   -4.89473    9.44474
H     -1.63265   -3.87681   10.81624
H     -0.20924   -1.66433    9.09635
H     -1.30679   -1.33433   10.45380
H     -1.63114   -0.62707    8.85613
H      7.79385    4.56188    7.91669
H      7.72210    2.80822    7.58481
H      6.85914    3.48819    8.99559
H      5.61869    1.96793    6.70883
H      4.76742    2.63823    8.11576
H     -1.51886   -1.52960    5.38771
H     -0.34637   -1.15449    6.64263
H      1.32754   -2.67488    5.48187
H      0.15633   -2.95021    4.20996
H     -0.27232   -3.58061    7.29017
H     -1.38573   -3.96903    5.97658
H      1.75095   -1.23053    3.49573
H      0.10399   -0.59836    3.59242
