52

C     -3.51875   -0.73015   -1.33192
C     -2.54690    0.30254   -1.05221
C     -1.44575   -0.19734   -0.41126
C     -4.81461   -0.58290   -1.97216
C     -3.12718   -1.97889   -0.89362
C     -5.16026   -3.04507   -1.63365
C      1.18436    2.14063   -1.28943
C     -7.13241   -2.71227   -3.95996
C      2.09600    0.77304   -2.95731
C      1.38199   -0.11176   -1.91641
C     -2.13137   -6.57245   -1.00743
C     -3.19494   -5.85351   -2.64831
C     -6.77465   -1.30110   -4.36129
C     -2.54165   -5.14633   -1.43698
C     -6.76895   -1.70572   -2.90012
C     -2.71650    1.74507   -1.44160
C     -5.49068   -1.03486   -5.11856
C     -0.18840    0.52649   -0.01081
C     -3.45773   -4.40165   -0.47349
N     -5.50511   -1.80947   -2.19194
N     -3.90657   -3.10682   -1.00710
N      2.20776    2.04121   -2.23267
N      0.63394    0.87674   -1.15445
O     -5.31207    0.47978   -2.32696
O     -5.88259   -4.03273   -1.69015
O      0.83813    3.15181   -0.68904
O     -2.69011   -7.14797   -2.21396
S     -1.56519   -1.93766   -0.13375
H     -8.16505   -3.04611   -3.98661
H     -6.40764   -3.49002   -4.17469
H      3.07602    0.37747   -3.23471
H      1.48225    0.87282   -3.86287
H      0.72003   -0.84950   -2.37821
H      2.10420   -0.64069   -1.27534
H     -1.05554   -6.76337   -0.92312
H     -2.63864   -6.94776   -0.10808
H     -4.28892   -5.82706   -2.66218
H     -2.80032   -5.58080   -3.63330
H     -7.59826   -0.64220   -4.62569
H     -1.68805   -4.52194   -1.71254
H     -7.56930   -1.31211   -2.28078
H     -3.63689    2.15182   -1.01479
H     -1.86821    2.35059   -1.11810
H     -2.81589    1.83697   -2.52760
H     -4.68282   -1.69176   -4.77924
H     -5.16503    0.00003   -4.98347
H     -5.63540   -1.21889   -6.18890
H     -0.43171    1.46589    0.49168
H      0.38996   -0.08009    0.70179
H     -2.94589   -4.21423    0.47686
H     -4.35211   -4.98905   -0.26531
H      2.41006    2.89486   -2.73869
