15   
Generated by ForceBalance from scan.xyz: Frame 1 of 24
C        0.4045159801   -1.4307769402   -0.1618800016
C        0.2695117300    0.9686109255   -0.8692570653
C       -1.2041332040    0.0990737562    1.0070679326
C       -0.5355678548   -0.2184794506   -0.3350033370
N        0.1789982055   -2.5461785121   -0.9010233331
O        1.3262477501   -1.3293119601    0.6444476788
Cl      -1.8888226082   -0.5428658512   -1.5679696441
H       -0.3642847165    1.8573747938   -0.9258311402
H        1.1024846789    1.1617004689   -0.1884569269
H        0.6698943191    0.7581128505   -1.8641060523
H       -1.6179033097   -0.7969883255    1.4753638914
H       -0.4648364429    0.5500075975    1.6735293111
H       -2.0093981065    0.8213780934    0.8541767009
H        0.7987169457   -3.3342613920   -0.7641343291
H       -0.5950875458   -2.6154020923   -1.5467596373
15   
Generated by ForceBalance from scan.xyz: Frame 2 of 24
C        0.3724162408   -1.4554176544   -0.1811915754
C        0.2881207789    0.9511621923   -0.8623941423
C       -1.2080556333    0.0995484544    1.0079936590
C       -0.5434005052   -0.2247636285   -0.3407999947
N        0.1357925862   -2.5547811945   -0.9405929613
O        1.2873176958   -1.3825314392    0.6360571700
Cl      -1.8918449338   -0.5042106249   -1.5936078147
H       -0.3268553764    1.8538694248   -0.9061554292
H        1.1254621210    1.1163701934   -0.1797566273
H        0.6817207318    0.7449055822   -1.8608243505
H       -1.4278081144   -0.8003000157    1.5853123672
H       -0.5538305150    0.7573805066    1.5849798059
H       -2.1398517360    0.6428143899    0.8365035491
H        0.7428417495   -3.3545322473   -0.8150115703
H       -0.6305931582   -2.5980857222   -1.5976649089
15   
Generated by ForceBalance from scan.xyz: Frame 3 of 24
C        0.8691158333   -1.0994308354   -0.2730931734
C       -0.5457290903    0.6730576757   -1.2964689653
C       -0.7419187431    0.1937334195    1.1992883451
C       -0.5062618049   -0.4021314820   -0.2033073374
N        0.9641313628   -2.2841448046   -0.9331940984
O        1.8376246064   -0.5134958556    0.2034815848
Cl      -1.8928587681   -1.5852301702   -0.5875353275
H       -1.4913917102    1.2194132004   -1.2494202616
H        0.2792246786    1.3712851050   -1.1276922899
H       -0.4400884698    0.2333454930   -2.2912472278
H       -0.0807449223   -0.2525740919    1.9424150194
H       -0.5722094778    1.2729090898    1.1769829419
H       -1.7774749989    0.0388019988    1.5057152510
H        1.8689872709   -2.7375850557   -0.9410269235
H        0.1411275529   -2.8131423131   -1.1874877668
15   
Generated by ForceBalance from scan.xyz: Frame 4 of 24
C        0.8216182128   -1.1393566898   -0.2611704452
C       -0.5217318659    0.6789090980   -1.2912357541
C       -0.7775275238    0.1887503343    1.2039132992
C       -0.5371211374   -0.4009231011   -0.2030939627
N        0.8918053131   -2.3171325611   -0.9362303944
O        1.8027751735   -0.5883391315    0.2309792093
Cl      -1.9397340235   -1.5553488520   -0.6153256979
H       -1.4641497047    1.2323187480   -1.2821551138
H        0.3003009729    1.3697607419   -1.0815536647
H       -0.3745252652    0.2441912138   -2.2830064496
H        0.0557580893   -0.0528699206    1.8646804792
H       -0.8515907716    1.2777736341    1.1477448755
H       -1.7006280420   -0.1928623518    1.6400416623
H        1.7854820502   -2.7920870482   -0.9439172089
H        0.0586887827   -2.8209343491   -1.2076935280
15   
Generated by ForceBalance from scan.xyz: Frame 5 of 24
C        0.8518905345   -1.1224703077   -0.2630192203
C       -0.4674692837    0.7135853312   -1.2952376657
C       -0.7547610275    0.2024470438    1.1913621574
C       -0.5053038729   -0.3722860421   -0.2159771789
N        0.9144884323   -2.3135550970   -0.9142895412
O        1.8390434622   -0.5701290185    0.2157596131
Cl      -1.9037998254   -1.5269743919   -0.6362366933
H       -1.4127371216    1.2616493304   -1.3086109634
H        0.3451189416    1.4070442461   -1.0585758839
H       -0.2897225183    0.2863450091   -2.2852894462
H        0.1891966264    0.2158487900    1.7399121263
H       -1.0953530187    1.2389967024    1.1235716097
H       -1.4825685410   -0.3860105916    1.7496163276
H        1.8063958978   -2.7917540741   -0.9181762457
H        0.0793150596   -2.8148818184   -1.1834355516
15   
Generated by ForceBalance from scan.xyz: Frame 6 of 24
C        0.6579615312   -1.2334547058   -0.2293624730
C       -0.4165997580    0.7688661346   -1.2505234210
C       -1.0246492246    0.0754042511    1.1261505327
C       -0.6463216110   -0.3957671443   -0.2848095491
N        0.6860376890   -2.4447039751   -0.8419771231
O        1.6395902691   -0.7382893932    0.3193378880
Cl      -2.0579766398   -1.4102640394   -0.9475106012
H       -1.3200294600    1.3789234469   -1.3245344920
H        0.4019075872    1.3825056789   -0.8634115698
H       -0.1472544119    0.4110785369   -2.2474536982
H       -0.1025468295    0.2325826473    1.6912419290
H       -1.5405848402    1.0381629552    1.0797373282
H       -1.6417386483   -0.6557224245    1.6497575743
H        1.5450354040   -2.9764022389   -0.7842191363
H       -0.1489886255   -2.8760530497   -1.2127713094
15   
Generated by ForceBalance from scan.xyz: Frame 7 of 24
C        0.7799070158   -1.1262402335   -0.1649057669
C       -0.2772325229    0.8918037997   -1.1953573273
C       -1.0115001869    0.0908418947    1.1053665662
C       -0.5331869816   -0.3152508582   -0.2911648485
N        0.8232726741   -2.3906800729   -0.6551824788
O        1.7440008970   -0.5786298395    0.3653906012
Cl      -1.8843067122   -1.3258256256   -1.0715534260
H       -1.1908810191    1.4815503197   -1.3015384228
H        0.5016043912    1.5089963283   -0.7397761160
H        0.0587661377    0.5786324642   -2.1870738299
H       -0.1531475545    0.4792550715    1.6598638125
H       -1.7572957283    0.8867797774    1.0321382222
H       -1.4304329646   -0.7577397913    1.6499680915
H        1.6932829435   -2.8994678461   -0.5658820979
H        0.0177144805   -2.8330828402   -1.0746138682
15   
Generated by ForceBalance from scan.xyz: Frame 8 of 24
C        0.7530724555   -1.1623414028   -0.1886508385
C       -0.2641004401    0.8904938167   -1.1998169930
C       -1.0116981202    0.0770915849    1.0888717434
C       -0.5399914676   -0.3230912293   -0.3102087486
N        0.7611027111   -2.4293016594   -0.6743457772
O        1.7298174294   -0.6371855712    0.3407426214
Cl      -1.9209274698   -1.2822091851   -1.1022800091
H       -1.1527452436    1.5239005879   -1.2585031721
H        0.5598634874    1.4624664614   -0.7653564264
H        0.0167571464    0.5834296178   -2.2104226431
H       -0.2176725774    0.6486480689    1.5762679967
H       -1.9109315756    0.6941262652    1.0191984687
H       -1.2340219041   -0.8032733449    1.6967684842
H        1.6144984896   -2.9640687582   -0.5765194499
H       -0.0577888166   -2.8516781887   -1.0888781359
15   
Generated by ForceBalance from scan.xyz: Frame 9 of 24
C        0.7760427643   -1.1497511019   -0.1584194222
C       -0.2157937715    0.9110135334   -1.1788621288
C       -1.0024462436    0.0991670448    1.0962411258
C       -0.5089894002   -0.3059394544   -0.2972493203
N        0.7897442311   -2.4118547731   -0.6566938348
O        1.7416569869   -0.6329093024    0.3987329380
Cl      -1.8854979849   -1.2436204129   -1.1229440693
H       -1.0931723596    1.5612604523   -1.2249816771
H        0.6211951969    1.4639426748   -0.7448007628
H        0.0515182279    0.6082244284   -2.1944107367
H       -0.3282534674    0.8485555552    1.5167242969
H       -2.0182904656    0.4952105836    1.0338472363
H       -1.0227535856   -0.7636874709    1.7674654360
H        1.6368487988   -2.9534935210   -0.5429347712
H       -0.0229891052   -2.8266587795   -1.0907237412
15   
Generated by ForceBalance from scan.xyz: Frame 10 of 24
C        0.7985405128   -1.1146655449   -0.0752256909
C       -0.1555275228    0.9346146688   -1.1404062965
C       -1.0271163007    0.1489732211    1.1157972799
C       -0.4819699877   -0.2754445291   -0.2588765423
N        0.8616445155   -2.3490093898   -0.6355398095
O        1.7220566677   -0.6130703297    0.5617018165
Cl      -1.8237611374   -1.2152737504   -1.1416395858
H       -1.0310200394    1.5838072079   -1.2239844589
H        0.6635020726    1.4918709382   -0.6781549361
H        0.1500840589    0.6241701930   -2.1427715971
H       -0.5280280191    1.0602621276    1.4504853173
H       -2.1067070892    0.2992204729    1.0663531401
H       -0.8451316848   -0.6297413473    1.8611699560
H        1.7074972251   -2.8865699293   -0.4959976127
H        0.0762683548   -2.7574585255   -1.1227474589
15   
Generated by ForceBalance from scan.xyz: Frame 11 of 24
C        0.7423986696   -1.2283507195   -0.1049683117
C       -0.1842380579    0.8226348253   -1.1673019397
C       -0.9536404764    0.1596799853    1.1709413334
C       -0.5137464580   -0.3388387166   -0.2215845713
N        0.7895130178   -2.3872837091   -0.8124383148
O        1.6784188114   -0.8135642235    0.5737771435
Cl      -1.9368455850   -1.2545680267   -0.9986586539
H       -1.0338288739    1.5078009280   -1.2279610918
H        0.6811413888    1.3600594299   -0.7690268086
H        0.0531614760    0.4633503181   -2.1716976343
H       -0.6224088221    1.1885150899    1.3266565023
H       -2.0374514621    0.1054957583    1.2764988837
H       -0.5115041498   -0.4537785328    1.9581878278
H        1.6119403845   -2.9666501630   -0.7018787400
H       -0.0316133409   -2.7661869773   -1.2638192313
15   
Generated by ForceBalance from scan.xyz: Frame 12 of 24
C        0.5707878756   -1.2432061837   -0.0531402242
C       -0.1380196541    0.8928412565   -1.1048052153
C       -1.1924022283    0.1733125108    1.1092524982
C       -0.6274590175   -0.2841016585   -0.2533863468
N        0.6742702689   -2.3317673003   -0.8606845831
O        1.4282759492   -0.9354394335    0.7707032149
Cl      -1.9890710632   -1.1129788726   -1.2173989887
H       -0.9533129899    1.6028823983   -1.2650567593
H        0.6725260539    1.3942440207   -0.5677132302
H        0.2353260597    0.5555248604   -2.0748992122
H       -1.1012807853    1.2580706439    1.2082095020
H       -2.2468626604   -0.0849528267    1.2065565330
H       -0.6335772879   -0.2834736788    1.9266599966
H        1.4556133917   -2.9533637298   -0.6953184799
H       -0.1007498714   -2.6456393560   -1.4284446561
15   
Generated by ForceBalance from scan.xyz: Frame 13 of 24
C        0.6177945044   -1.2270008366   -0.0448466871
C       -0.0778083128    0.9189840820   -1.0869709079
C       -1.1459057578    0.1824601079    1.1151128053
C       -0.5778882667   -0.2603053414   -0.2477760069
N        0.7008727640   -2.3334899672   -0.8293005769
O        1.4891652244   -0.9116831222    0.7614739659
Cl      -1.9357487810   -1.0921985787   -1.2112121158
H       -0.8948114883    1.6209486281   -1.2710731420
H        0.7129017298    1.4286200677   -0.5283214531
H        0.3265610059    0.5843770034   -2.0456034496
H       -1.3319631051    1.2604287043    1.1051227426
H       -2.0994909353   -0.3018967591    1.3268533085
H       -0.4267862565   -0.0309207170    1.9066451519
H        1.4808458529   -2.9569105915   -0.6645974531
H       -0.0799235761   -2.6477158307   -1.3886850374
15   
Generated by ForceBalance from scan.xyz: Frame 14 of 24
C        0.3984466956   -1.3033978185   -0.0922749907
C       -0.0399548373    0.9639459709   -1.0255506406
C       -1.3983469628    0.1224061650    0.9628886277
C       -0.7017973526   -0.2429337781   -0.3564266445
N        0.4284120417   -2.4236815615   -0.8587974797
O        1.2406492375   -1.0584033087    0.7682368215
Cl      -1.9916646444   -0.8995904646   -1.5230840837
H       -0.7873586588    1.7324574617   -1.2369504437
H        0.7103705174    1.3698623650   -0.3411065946
H        0.4517658134    0.6805524201   -1.9595826855
H       -1.7635681691    1.1525743459    0.9108549178
H       -2.2677604052   -0.5122410182    1.1428146604
H       -0.6868446733    0.0434827069    1.7863559278
H        1.1475502653   -3.1066210515   -0.6578275065
H       -0.3187725788   -2.6537835277   -1.4987836461
15   
Generated by ForceBalance from scan.xyz: Frame 15 of 24
C        0.4982101176   -1.2243635772    0.0015023600
C        0.0767990664    1.0588241738   -0.9269803434
C       -1.3792756777    0.1449783634    0.9504163015
C       -0.5943451264   -0.1767477110   -0.3247175543
N        0.4813408756   -2.4179681592   -0.6435056273
O        1.3513725608   -0.9226980420    0.8331707976
Cl      -1.8062087438   -0.8246351567   -1.5764003809
H       -0.6751916560    1.8136811728   -1.1689202900
H        0.7769435400    1.4668500102   -0.1933041882
H        0.6289437082    0.8057666205   -1.8356201210
H       -1.9630137475    1.0581867483    0.8033973628
H       -2.0774868825   -0.6578441756    1.1975569362
H       -0.6775697192    0.2966079790    1.7736173250
H        1.2115966317   -3.0821728412   -0.4214331126
H       -0.2284791972   -2.6527365880   -1.3228952392
15   
Generated by ForceBalance from scan.xyz: Frame 16 of 24
C        0.5211278580   -1.2076503842    0.0353624753
C        0.1122584446    1.0827193041   -0.8927247529
C       -1.3713181309    0.1554391872    0.9507574989
C       -0.5627822002   -0.1601766179   -0.3090761881
N        0.5003314718   -2.4076002853   -0.5980651613
O        1.3656719393   -0.9041579977    0.8749908092
Cl      -1.7567323824   -0.7886004679   -1.5862768611
H       -0.6352985789    1.8504473218   -1.1071667311
H        0.8279483127    1.4677048428   -0.1619071854
H        0.6471455343    0.8441996930   -1.8154912492
H       -2.1183285516    0.9233435109    0.7352269560
H       -1.8798111684   -0.7360349987    1.3265514818
H       -0.6883573946    0.5201783610    1.7221324035
H        1.2150535863   -3.0811930330   -0.3545934113
H       -0.2068480555   -2.6428541229   -1.2802145424
15   
Generated by ForceBalance from scan.xyz: Frame 17 of 24
C        0.4860855665   -1.2419503197    0.0110730234
C        0.1267840728    1.0691996149   -0.8876564067
C       -1.3832273757    0.1499261472    0.9361096944
C       -0.5732139087   -0.1702907726   -0.3247304609
N        0.4482994077   -2.4289813009   -0.6451870079
O        1.3242923459   -0.9697691669    0.8674790518
Cl      -1.7715995520   -0.7428236834   -1.6254663550
H       -0.6013447993    1.8660070889   -1.0598325205
H        0.8712286730    1.4099921218   -0.1636680907
H        0.6310079589    0.8436813059   -1.8307140893
H       -2.2523521362    0.7624202825    0.6886073884
H       -1.7044851814   -0.7627282529    1.4444013323
H       -0.7403283122    0.6995058628    1.6287297314
H        1.1472454382   -3.1207533900   -0.4069027535
H       -0.2538268761   -2.6357526416   -1.3417789469
15   
Generated by ForceBalance from scan.xyz: Frame 18 of 24
C        0.3879185445   -1.3663242505   -0.0395197268
C        0.0858084689    0.9386863577   -0.9445489510
C       -1.3411432095    0.1480739853    1.0057957964
C       -0.6413511308   -0.2487931381   -0.3024179085
N        0.4308207231   -2.4255145142   -0.8897812058
O        1.1706547152   -1.2183167034    0.8956909329
Cl      -1.9507406723   -0.7765402436   -1.5158683002
H       -0.6076394655    1.7724021706   -1.0825250432
H        0.8961662238    1.2527108800   -0.2806944359
H        0.5085976346    0.6668282358   -1.9148584764
H       -2.3129991542    0.6002183984    0.8056954885
H       -1.4454803719   -0.7054381592    1.6786676780
H       -0.7157102997    0.8758495735    1.5299933361
H        1.0901319785   -3.1639295447   -0.6789753986
H       -0.2997701449   -2.5876727836   -1.5692778120
15   
Generated by ForceBalance from scan.xyz: Frame 19 of 24
C        0.3993195836   -1.3774885623   -0.0324745553
C        0.1263315312    0.9267042558   -0.9330465639
C       -1.3141325179    0.1616498731    1.0268852250
C       -0.6201716152   -0.2475581871   -0.2881045544
N        0.4499758510   -2.4187523783   -0.9039935348
O        1.1733041404   -1.2503181004    0.9129468180
Cl      -1.9284594683   -0.7644679276   -1.5091541765
H       -0.5576273865    1.7654355501   -1.0866721240
H        0.9304188614    1.2390804235   -0.2606048344
H        0.5595231154    0.6423471266   -1.8952099069
H       -2.3714643120    0.3710608121    0.8662080533
H       -1.1926934291   -0.6053588926    1.7931777072
H       -0.8400158291    1.0659971045    1.4178342127
H        1.1085296371   -3.1604780089   -0.7028617128
H       -0.2739933300   -2.5672609714   -1.5935603157
15   
Generated by ForceBalance from scan.xyz: Frame 20 of 24
C        0.4206395534   -1.3818590775   -0.0172577743
C        0.1735645843    0.9230281955   -0.9114238202
C       -1.2754884996    0.1771209713    1.0569729274
C       -0.5907963966   -0.2377058798   -0.2642250665
N        0.4649813422   -2.4134525595   -0.9005422106
O        1.1995433820   -1.2709671161    0.9260556277
Cl      -1.9032658223   -0.7550901968   -1.4806113269
H       -0.5040946240    1.7605281954   -1.0954769572
H        0.9613415734    1.2445616865   -0.2238596461
H        0.6305586453    0.6216238515   -1.8572954437
H       -2.3600152924    0.1006090151    0.9802226670
H       -0.9303785805   -0.4498828005    1.8798748072
H       -1.0239412704    1.2124007903    1.3009639377
H        1.1232622952   -3.1582144066   -0.7103404761
H       -0.2605860274   -2.5524920594   -1.5902248655
15   
Generated by ForceBalance from scan.xyz: Frame 21 of 24
C        0.3740223936   -1.3990919276   -0.0375739324
C        0.2014320770    0.9268579183   -0.8958846275
C       -1.2978230711    0.1833489189    1.0345236674
C       -0.6050543248   -0.2213491827   -0.2815708642
N        0.3943737419   -2.4236736450   -0.9295814071
O        1.1525697261   -1.3211311589    0.9093376774
Cl      -1.9129279064   -0.7015586356   -1.5166092591
H       -0.4532354808    1.7780992584   -1.0983789586
H        0.9708408086    1.2295998154   -0.1793819964
H        0.6858693895    0.6216887233   -1.8267755783
H       -2.3327270686   -0.1616254886    1.0519223034
H       -0.7791800589   -0.2750223517    1.8777372549
H       -1.2976234390    1.2692415281    1.1546736545
H        1.0338191582   -3.1859695815   -0.7449357400
H       -0.3274394767   -2.5349555834   -1.6279748657
15   
Generated by ForceBalance from scan.xyz: Frame 22 of 24
C        0.3804630756   -1.4222424159   -0.1676116024
C        0.1099042472    0.9181564545   -0.9748513723
C       -1.1841798073    0.1254945690    1.0745528859
C       -0.6228382968   -0.2469431406   -0.3050503947
N        0.2660232417   -2.4809475195   -1.0102582931
O        1.2843326507   -1.3194144134    0.6582013489
Cl      -2.0498478990   -0.7206787055   -1.3993813662
H       -0.5674483030    1.7667825649   -1.0975368422
H        0.9450570614    1.2149533337   -0.3337761226
H        0.5015212945    0.6322213459   -1.9543023881
H       -2.0769469314   -0.4625046404    1.2988273591
H       -0.4390151242   -0.1107232598    1.8366855130
H       -1.4483064205    1.1847395125    1.1151718721
H        0.9261021424   -3.2394790231   -0.8967965371
H       -0.5341180632   -2.5976239729   -1.6160913071
15   
Generated by ForceBalance from scan.xyz: Frame 23 of 24
C        0.4639048163   -1.3773491242   -0.0922540088
C        0.2466111508    0.9869593230   -0.8752753689
C       -1.1973053496    0.1287069009    1.0372663389
C       -0.5233674621   -0.2017803866   -0.2972756839
N        0.2984802654   -2.5103530334   -0.8201626744
O        1.3773412394   -1.2258254975    0.7158664334
Cl      -1.8648101487   -0.6430958538   -1.5060898289
H       -0.4284276842    1.8321005806   -1.0300720135
H        1.0278687110    1.2731439492   -0.1660896840
H        0.7153034949    0.7296386193   -1.8285260429
H       -1.9423214398   -0.6291672643    1.2926368719
H       -0.4373765911    0.1280136420    1.8224101697
H       -1.6905760814    1.1024202939    0.9885735933
H        0.9556582812   -3.2649002152   -0.6699515972
H       -0.4717648569   -2.6292391554   -1.4629674545
15   
Generated by ForceBalance from scan.xyz: Frame 24 of 24
C        0.3902932104   -1.4310497309   -0.1968368468
C        0.2356049148    0.9678629497   -0.8998272766
C       -1.2089067192    0.0851817222    0.9959169720
C       -0.5585304164   -0.2209804363   -0.3542917751
N        0.1507656812   -2.5532719975   -0.9212799058
O        1.3336036015   -1.3221977257    0.5834956749
Cl      -1.9305787799   -0.5647480769   -1.5604090277
H       -0.4118523048    1.8439906481   -0.9857185035
H        1.0540876745    1.1875548771   -0.2097259740
H        0.6563200030    0.7426546907   -1.8830476308
H       -1.8027170964   -0.7612557121    1.3495051428
H       -0.4208920291    0.2914123128    1.7246559692
H       -1.8578465445    0.9603254530    0.9097716237
H        0.7811449672   -3.3353838082   -0.7999594850
H       -0.6354441873   -2.6284310862   -1.5512863549
