22   

C        1.8248828295   -0.2121661870    0.1148658767
C        0.5379470758   -0.4647972512    0.5829362205
C        2.9238848528   -0.4465866358    0.9438792888
C        0.3549000742   -0.9564641646    1.8761667953
C        2.7602446371   -0.9282505904    2.2537354472
C        1.4486030595   -1.1953779016    2.7263995572
C        3.9531985060   -1.1290921218    3.0993932345
C        5.2694877430   -0.8026800157    2.8750549637
C        1.1965874041   -1.7555933337    4.1062543887
C        6.3746217888   -1.6108833429    2.2243155503
H        1.9733982600    0.1683537576   -0.8891567842
H       -0.3191150913   -0.2827031934   -0.0554252535
H        3.9191017344   -0.2409378477    0.5679799903
H       -0.6528908178   -1.1552557643    2.2218558807
H        3.7263840942   -1.2972993700    4.1443396155
H        5.7071074654   -0.3760458770    3.7714239583
H        1.7808538564   -2.6690590519    4.2547549215
H        1.4749559813   -1.0210673271    4.8678664140
H        0.1401397494   -2.0062572943    4.2406422427
H        7.1789192525   -1.8079307936    2.9396542893
H        5.9808418814   -2.5673948245    1.8673887142
H        6.7859284022   -1.0617548371    1.3724204086
22   

C        1.9195372173   -0.2860677283    0.1157437364
C        0.6179738705   -0.5043750596    0.5594833384
C        2.9930244197   -0.4848915624    0.9864189040
C        0.3947322738   -0.9256818540    1.8709112384
C        2.7888643338   -0.8920198415    2.3165916628
C        1.4619654443   -1.1244652136    2.7639513331
C        3.9509288606   -1.0579426601    3.2115149556
C        5.2683485942   -0.7942056483    2.9670551580
C        1.1680474705   -1.6252961563    4.1582541599
C        6.2419611261   -1.5944965357    2.1295795955
H        2.0992194199    0.0408988927   -0.9019523370
H       -0.2191687638   -0.3514740407   -0.1121087940
H        3.9982511107   -0.3033084531    0.6259912665
H       -0.6236217938   -1.1034781130    2.1964837887
H        3.7000195886   -1.1350302383    4.2618594758
H        5.7846570706   -0.4505011140    3.8570425673
H        1.7621795377   -2.5198068497    4.3702819769
H        1.4043477918   -0.8518763514    4.8949385922
H        0.1123089651   -1.8922651320    4.2639735979
H        7.0958048750   -1.9114281271    2.7360246964
H        5.7496895966   -2.4842242697    1.7249175677
H        6.6064391241   -0.9858358505    1.2969832936
22   

C        1.9927581334   -0.3619956580    0.1189148381
C        0.6818460112   -0.5518844612    0.5465563531
C        3.0474268281   -0.5123109437    1.0216407165
C        0.4303493573   -0.8946649774    1.8752170517
C        2.8154364435   -0.8377613234    2.3709119676
C        1.4779258322   -1.0394563565    2.8012759373
C        3.9496860461   -0.9540397934    3.3096488035
C        5.2718480682   -0.8033437466    3.0405424708
C        1.1545090442   -1.4750183001    4.2108557539
C        6.1010109956   -1.6096942927    2.0681300118
H        2.1944483245   -0.0929140468   -0.9115198399
H       -0.1403982462   -0.4385389471   -0.1507937153
H        4.0566533198   -0.3452791641    0.6677460533
H       -0.5946654978   -1.0564508891    2.1879225875
H        3.6901004601   -0.9442102341    4.3609109002
H        5.8580978067   -0.5220577031    3.9087354966
H        1.7631351207   -2.3423928470    4.4858568546
H        1.3495370783   -0.6595769594    4.9132036289
H        0.1034567179   -1.7660247328    4.2986750778
H        6.9727835003   -2.0336936626    2.5754750254
H        5.5075464133   -2.4288534008    1.6500871402
H        6.4464582998   -0.9707037253    1.2502314945
22   

C        2.0315764409   -0.4120940304    0.1272130662
C        0.7161733390   -0.5864571708    0.5452133382
C        3.0750980202   -0.5219796137    1.0483295415
C        0.4489115225   -0.8701618918    1.8840637469
C        2.8291929341   -0.7905430184    2.4091641409
C        1.4847418440   -0.9707724215    2.8290885247
C        3.9408906428   -0.8659347598    3.3788418925
C        5.2662531168   -0.8478981216    3.1106868506
C        1.1427139751   -1.3566777797    4.2488155197
C        5.9805488523   -1.6240643588    2.0322286914
H        2.2457115790   -0.1835974936   -0.9104887212
H       -0.0970789492   -0.5059573521   -0.1670876722
H        4.0826762824   -0.3536983606    0.6938645932
H       -0.5795585881   -1.0227452843    2.1898827695
H        3.6779577119   -0.7956281276    4.4271095861
H        5.8950184772   -0.6396202638    3.9695871882
H        1.7610703613   -2.2015978063    4.5686987276
H        1.3092508721   -0.5112847649    4.9222523464
H        0.0960948139   -1.6656659290    4.3281050197
H        6.8488613875   -2.1387271105    2.4544540293
H        5.3151937943   -2.3739321943    1.5928313557
H        6.3262361419   -0.9467490132    1.2458323206
22   

C        2.0514308639   -0.4427993483    0.1339117510
C        0.7360732543   -0.6096510676    0.5525223969
C        3.0926150671   -0.5192091286    1.0608076015
C        0.4664251972   -0.8487118635    1.8989487204
C        2.8468140678   -0.7478440385    2.4304152912
C        1.4996286257   -0.9132150269    2.8501341722
C        3.9458931223   -0.7887228665    3.4177773021
C        5.2640742623   -0.9128678013    3.1642209043
C        1.1524222785   -1.2620507345    4.2783252274
C        5.8994606687   -1.6321136966    2.0022226780
H        2.2676370738   -0.2429575063   -0.9092705515
H       -0.0750641839   -0.5562962119   -0.1647242966
H        4.0944193718   -0.3417773259    0.6978160770
H       -0.5622999762   -0.9966208148    2.2060995338
H        3.6851884309   -0.6743498186    4.4628071657
H        5.9149906023   -0.7797569555    4.0215140984
H        1.7807313531   -2.0877529139    4.6278414507
H        1.2999155001   -0.3948143678    4.9278042035
H        0.1105470479   -1.5865790445    4.3583516031
H        6.7629879546   -2.2065772088    2.3506488455
H        5.1927876210   -2.3294685576    1.5416132532
H        6.2455590331   -0.9134034537    1.2536422124
22   

C        2.0589565350   -0.4695172523    0.1371596032
C        0.7442383599   -0.6217949775    0.5611661619
C        3.1013168533   -0.5247786416    1.0640620991
C        0.4763809782   -0.8223165442    1.9137024134
C        2.8595696995   -0.7188581567    2.4407434345
C        1.5106911843   -0.8638904393    2.8651073496
C        3.9528406501   -0.7386497734    3.4356488000
C        5.2544893322   -0.9988925713    3.2117394484
C        1.1619806086   -1.1791046873    4.3009084128
C        5.8636128270   -1.6272916029    1.9867068803
H        2.2740575930   -0.2952431683   -0.9108336917
H       -0.0676209939   -0.5858072695   -0.1563455044
H        4.0981880812   -0.3479871556    0.6897967127
H       -0.5523096711   -0.9596214956    2.2257650872
H        3.6935171963   -0.5970877798    4.4776946532
H        5.9035376106   -0.9427696333    4.0788854958
H        1.7912272221   -1.9950783503    4.6711180908
H        1.3058428692   -0.2963730596    4.9298640672
H        0.1210659619   -1.5052763825    4.3867296543
H        6.7333884359   -2.2248236405    2.2757068016
H        5.1512965678   -2.2945920949    1.4919198122
H        6.2003993961   -0.8553047307    1.2886233533
22   

C        2.0532989811   -0.4959712864    0.1369286389
C        0.7393739519   -0.6229817997    0.5700872638
C        3.0995632765   -0.5402244456    1.0599456676
C        0.4762451185   -0.7858013714    1.9281955371
C        2.8641086041   -0.6975869135    2.4429809536
C        1.5145000922   -0.8147246896    2.8758497343
C        3.9580651193   -0.7077045078    3.4381311429
C        5.2327158947   -1.0947516037    3.2469790540
C        1.1671105578   -1.0964049664    4.3190884396
C        5.8574555298   -1.6106930191    1.9790487789
H        2.2651111080   -0.3489538730   -0.9159025922
H       -0.0753797932   -0.5964788713   -0.1445504270
H        4.0930326477   -0.3780626012    0.6721612277
H       -0.5523323601   -0.9050835236    2.2478716175
H        3.6995710292   -0.5504365839    4.4780611551
H        5.8641614599   -1.1146818071    4.1286066204
H        1.7896993030   -1.9104989586    4.7045212859
H        1.3203289982   -0.2021988308    4.9292261668
H        0.1238437295   -1.4122669027    4.4144210563
H        6.7474864659   -2.1980027815    2.2239322884
H        5.1674948089   -2.2669890124    1.4401127171
H        6.1692289759   -0.7794760820    1.3398306038
22   

C        2.0640205691   -0.4110134129    0.1476718503
C        0.7498632385   -0.4545123203    0.5977295380
C        3.0964899627   -0.8750916533    0.9645896609
C        0.4724303489   -0.9691003310    1.8624594698
C        2.8446591691   -1.4084809087    2.2465575105
C        1.4961266205   -1.4572460205    2.6933967582
C        3.9260596001   -1.9396228117    3.1032682177
C        5.2378426250   -1.6446831955    3.0370857067
C        1.1405625570   -1.9136115267    4.0890282480
C        5.8809450618   -0.4963587654    2.3060412440
H        2.2859341225   -0.0287544674   -0.8420565993
H       -0.0541199979   -0.0892783487   -0.0311175961
H        4.0916100424   -0.8675574137    0.5465433507
H       -0.5550067500   -0.9774411646    2.2070508763
H        3.6500214415   -2.5881475549    3.9256845224
H        5.8745128214   -2.1602707004    3.7478429466
H        1.2486577684   -2.9983502268    4.1736047664
H        1.7910820838   -1.4257112706    4.8222389304
H        0.1096452861   -1.6432988750    4.3368125704
H        6.2014048328   -0.8101158933    1.3082581331
H        5.1959678828    0.3535949009    2.2293331272
H        6.7656919219   -0.1617541974    2.8558939995
22   

C        2.0566629142   -0.4295249190    0.1344551525
C        0.7415559833   -0.4568930975    0.5849947859
C        3.0866630611   -0.8776292914    0.9635152418
C        0.4608274570   -0.9365719547    1.8632066798
C        2.8291081864   -1.3790193285    2.2561006250
C        1.4821338440   -1.4070934705    2.7069894963
C        3.9150337739   -1.8907034038    3.1183492119
C        5.2400121978   -1.6998802725    2.9590494615
C        1.1262315174   -1.8322837384    4.1121632247
C        5.9150569331   -0.5078940355    2.3307756808
H        2.2809870345   -0.0706321731   -0.8634356258
H       -0.0607414156   -0.1050264863   -0.0535525147
H        4.0872956154   -0.8771088142    0.5565903275
H       -0.5668652185   -0.9326451655    2.2071932185
H        3.6361152863   -2.5178481168    3.9562197249
H        5.8739867030   -2.2782150163    3.6223505713
H        1.2370185245   -2.9146606067    4.2210865044
H        1.7754867501   -1.3269004200    4.8345009343
H        0.0941624424   -1.5597628851    4.3525648496
H        6.2481224571   -0.7501383043    1.3173221931
H        5.2381333312    0.3515164140    2.2985190741
H        6.7918229596   -0.2258313152    2.9213786241
22   

C        2.0352318801   -0.4546906351    0.1101619732
C        0.7212579257   -0.4759647111    0.5666962702
C        3.0708569380   -0.8685376754    0.9502106440
C        0.4475106965   -0.9115667646    1.8627448871
C        2.8177360668   -1.3290617652    2.2572417952
C        1.4748749454   -1.3453398595    2.7186115746
C        3.9198344465   -1.7996901563    3.1208236859
C        5.2469771090   -1.7224261708    2.8729396210
C        1.1286463318   -1.7325876630    4.1369537971
C        5.9987333743   -0.5274471151    2.3412925180
H        2.2541157767   -0.1246792504   -0.8988341163
H       -0.0857438711   -0.1519176414   -0.0805862618
H        4.0766137218   -0.8643917254    0.5532182888
H       -0.5790901224   -0.9035492082    2.2099992925
H        3.6424200526   -2.3893325172    3.9858673035
H        5.8584524807   -2.3632207135    3.4989715460
H        1.2605976121   -2.8088279078    4.2792269204
H        1.7695489826   -1.1929969867    4.8416956535
H        0.0914193605   -1.4739008028    4.3702206331
H        6.3314420805   -0.7162834382    1.3164405944
H        5.3633149900    0.3637093348    2.3536735539
H        6.8782993502   -0.3323236437    2.9621062235
22   

C        1.9952049012   -0.4814851615    0.0805885861
C        0.6846637963   -0.4949758172    0.5493593240
C        3.0403532862   -0.8578095854    0.9266930839
C        0.4241184156   -0.8818811695    1.8640881534
C        2.7983672414   -1.2711830044    2.2498843775
C        1.4616330021   -1.2749765596    2.7272109331
C        3.9214517437   -1.6985684586    3.1090830210
C        5.2419759419   -1.7308743493    2.7963906330
C        1.1311876648   -1.6211786338    4.1597443075
C        6.1077973731   -0.5631689280    2.3833631955
H        2.2037882454   -0.1844778315   -0.9407616254
H       -0.1301207199   -0.2015501548   -0.1027565701
H        4.0490067033   -0.8525706834    0.5339026016
H       -0.5998086354   -0.8695538349    2.2191040129
H        3.6461375947   -2.2442421324    4.0030056896
H        5.8073874668   -2.4416619197    3.3893960908
H        1.2881711934   -2.6889605002    4.3370840296
H        1.7639881804   -1.0445059380    4.8419598239
H        0.0891907816   -1.3795769403    4.3899206410
H        6.4485051677   -0.6952886981    1.3523221614
H        5.5434011301    0.3721046975    2.4518665896
H        6.9827130287   -0.4915591611    3.0364617528
22   

C        1.9200661850   -0.5440154132    0.0378622341
C        0.6193378127   -0.5406295422    0.5345737345
C        2.9856714348   -0.8611145585    0.8827951565
C        0.3892255185   -0.8493884837    1.8758030230
C        2.7739010709   -1.1922928157    2.2327078900
C        1.4482355638   -1.1778063051    2.7398996575
C        3.9266234170   -1.5531267161    3.0810851179
C        5.2385905003   -1.6996196582    2.7315325726
C        1.1486710151   -1.4590198512    4.1933396426
C        6.2506737079   -0.6176219663    2.4240520013
H        2.1050770447   -0.3046473966   -1.0029897917
H       -0.2117091170   -0.2953495162   -0.1169020759
H        3.9901218405   -0.8656753354    0.4773078510
H       -0.6279282834   -0.8296645465    2.2495185350
H        3.6619218430   -2.0203424379    4.0211702467
H        5.7294443119   -2.4713511803    3.3148674615
H        1.3489483584   -2.5095036782    4.4237703194
H        1.7673949290   -0.8240056117    4.8352363847
H        0.1003738591   -1.2481887661    4.4249768934
H        6.6080702986   -0.7220253991    1.3955098448
H        5.7940171712    0.3703403666    2.5384816938
H        7.1048284833   -0.6900043077    3.1040919091
22   

C        1.8227540433   -0.6027079240   -0.0001903787
C        0.5374362006   -0.5835100939    0.5352589694
C        2.9157765644   -0.8693496377    0.8269891521
C        0.3502300151   -0.8251859978    1.8969619077
C        2.7473863716   -1.1288996072    2.1976765631
C        1.4377707670   -1.0987987705    2.7446362219
C        3.9329503842   -1.4362005917    3.0214303385
C        5.2415866369   -1.6451174488    2.6562640925
C        1.1825043945   -1.3240869134    4.2161782491
C        6.3814341860   -0.6558966561    2.5141390567
H        1.9745324227   -0.4142850381   -1.0567763284
H       -0.3150633697   -0.3791526179   -0.1024726915
H        3.9096269004   -0.8857960818    0.3956666956
H       -0.6559381935   -0.7985112272    2.2989263013
H        3.6956182992   -1.8247949986    4.0034293820
H        5.6518326759   -2.4888309726    3.2011037135
H        1.4254761675   -2.3558665482    4.4872195544
H        1.7932884831   -0.6402229040    4.8137686074
H        0.1326579516   -1.1418314040    4.4643311405
H        6.7883479191   -0.6992454415    1.4997518464
H        6.0234136171    0.3603910709    2.7048036921
H        7.1804266084   -0.8853437497    3.2257537985
