19   

C        1.7708357251   -1.2073631582   -0.1181272928
C        0.7840185010   -0.4715922021    0.5255206561
C        2.7793458096   -1.8161227957    0.6307799530
C        0.8171489258   -0.3435018384    1.9130731286
C        2.8280617124   -1.7222434619    2.0404848157
C        1.8262642399   -0.9506732063    2.6864757229
C        3.9374114945   -2.3782579180    2.7466363214
C        1.8017392634   -0.7343288572    4.1812512170
N        4.1095845767   -2.5694716638    4.0969745128
N        5.0301618460   -2.8515689983    2.1031537344
N        5.3144749401   -3.1866455251    4.2152614129
N        5.8478101948   -3.3491762967    3.0629470005
H        1.7615627871   -1.3096801796   -1.1965683321
H       -0.0026389371    0.0039178161   -0.0478319585
H        3.5411999889   -2.3840348698    0.1093804110
H        0.0457037237    0.2423495786    2.3976691392
H        1.6379550850   -1.6856032182    4.6964696157
H        2.7486822210   -0.2994779762    4.5154334059
H        0.9984279895   -0.0498056245    4.4674025525
19   

C        1.7711147159   -1.2100798573   -0.1320192017
C        0.7881686938   -0.4656998257    0.5098698496
C        2.7715755678   -1.8284820766    0.6201842621
C        0.8210648440   -0.3328686836    1.8978417720
C        2.8048605819   -1.7452875433    2.0284876693
C        1.8220583411   -0.9504426122    2.6730367226
C        3.9194818294   -2.3869559898    2.7407815494
C        1.8196016147   -0.7150931965    4.1649630729
N        4.0010921933   -2.7262162618    4.0701321670
N        5.1183903895   -2.6198858990    2.1598426355
N        5.2616886724   -3.2078865877    4.2313417179
N        5.9086634403   -3.1451396544    3.1280322848
H        1.7657134917   -1.3094280319   -1.2107482390
H        0.0077885379    0.0173727493   -0.0657245671
H        3.5387602408   -2.3997811149    0.1100322128
H        0.0591411496    0.2667962590    2.3806047498
H        1.5939421806   -1.6470843579    4.6918273793
H        2.7962869965   -0.3440437168    4.4907294710
H        1.0674377875    0.0276427174    4.4448912433
19   

C        1.7819706679   -1.1997983039   -0.1410463380
C        0.8061176234   -0.4456989171    0.5030154152
C        2.7721905977   -1.8353020163    0.6111330852
C        0.8394022181   -0.3153002287    1.8921712411
C        2.7904109276   -1.7678567995    2.0176848014
C        1.8298562457   -0.9513841609    2.6651502867
C        3.9059646115   -2.4037067755    2.7384499902
C        1.8493892842   -0.7139335443    4.1564117531
N        3.8982400255   -2.9044100564    4.0179063952
N        5.1751592333   -2.4030973753    2.2762030273
N        5.1877627275   -3.2614908275    4.2571121614
N        5.9266289823   -2.9700940579    3.2519960550
H        1.7795831439   -1.2910824470   -1.2204783239
H        0.0337587265    0.0505503530   -0.0721805955
H        3.5430933391   -2.4092737441    0.1095554388
H        0.0892348402    0.2975028080    2.3768426618
H        1.5766719593   -1.6316946412    4.6858933578
H        2.8478949709   -0.3995348521    4.4760809553
H        1.1417538228    0.0705593965    4.4384987877
19   

C        2.1034205068   -0.5926491323   -0.0909663884
C        0.9120325573   -0.2336610850    0.5343012114
C        3.0898764159   -1.2641213877    0.6353099787
C        0.7245542987   -0.5269937869    1.8867535465
C        2.8906584990   -1.6312339081    1.9777833104
C        1.7084956498   -1.2058518280    2.6301188222
C        4.0016554027   -2.2597225452    2.7199436545
C        1.4875334286   -1.4364864310    4.1058750577
N        3.8986860439   -3.2694902771    3.6447416351
N        5.2484913278   -1.7466455279    2.7605333720
N        5.1510186804   -3.3886474446    4.1602558245
N        5.9307460734   -2.5076952301    3.6517546163
H        2.2698800712   -0.3478530323   -1.1330039356
H        0.1412938485    0.2868477751   -0.0212825372
H        4.0292637699   -1.5270469773    0.1626830550
H       -0.1938499452   -0.2143805194    2.3683861209
H        1.3421146416   -2.5031208657    4.3008778892
H        2.3539636545   -1.0865978944    4.6761673881
H        0.6054324290   -0.8958898210    4.4599257975
19   

C        2.0932975451   -0.6036700373   -0.1069712393
C        0.9100717145   -0.2314839150    0.5289895413
C        3.0861486162   -1.2717782151    0.6147414777
C        0.7343936862   -0.5103640910    1.8869824714
C        2.8974648847   -1.6165616502    1.9627401206
C        1.7241320840   -1.1859711032    2.6243539574
C        4.0014419009   -2.2501989891    2.7188404210
C        1.5267012764   -1.4214567687    4.1023206845
N        3.9138257437   -3.4187517205    3.4316949394
N        5.1577401764   -1.6256035124    3.0155042546
N        5.1039417290   -3.5031366283    4.0843198427
N        5.8217032427   -2.4673030509    3.8463293358
H        2.2473244062   -0.3721468841   -1.1539300030
H        0.1353210343    0.2860751991   -0.0237592235
H        4.0188530161   -1.5475987590    0.1368502230
H       -0.1780645165   -0.1918483883    2.3759697080
H        1.4149868322   -2.4918948107    4.2990090807
H        2.3917603086   -1.0501441243    4.6611453290
H        0.6344328129   -0.9048691271    4.4665469509
19   

C        2.0184835363   -0.7832364418   -0.1505776616
C        0.8611941812   -0.3521543110    0.4985985829
C        3.0358994895   -1.4003887570    0.5831217001
C        0.7249092561   -0.5392781599    1.8775755866
C        2.9114550334   -1.5936233301    1.9668733952
C        1.7406401997   -1.1585090924    2.6278390218
C        4.0006464738   -2.2497473894    2.7296371082
C        1.5776248889   -1.3531293070    4.1149375284
N        4.1219857838   -3.5937685376    2.9570668968
N        5.0230584174   -1.5822189202    3.2959847654
N        5.2623046706   -3.6963234950    3.6927426106
N        5.7824497873   -2.5383112815    3.8875558443
H        2.1309155326   -0.6413183815   -1.2186046681
H        0.0693901696    0.1269026212   -0.0646017352
H        3.9407162355   -1.7400593185    0.0929286438
H       -0.1784230490   -0.2001364717    2.3695940045
H        1.6287972536   -2.4187516168    4.3595384901
H        2.3793331575   -0.8337690309    4.6492880162
H        0.6168665155   -0.9611777074    4.4600148899
19   

C        1.9348601172   -0.9688561400   -0.1622668378
C        0.8055475041   -0.4722319226    0.4867590474
C        2.9725973343   -1.5310589411    0.5863846216
C        0.7110702753   -0.5583176943    1.8781772205
C        2.9214957066   -1.5676318704    1.9894390053
C        1.7504629420   -1.1195608555    2.6421232130
C        3.9981609506   -2.2489430616    2.7439291312
C        1.6066275135   -1.2392679335    4.1392904581
N        4.4686379739   -3.5071081518    2.4710929986
N        4.8598830434   -1.6116876866    3.5592653039
N        5.5704192808   -3.6297524364    3.2589975992
N        5.7994568932   -2.5339278543    3.8847296491
H        2.0090855909   -0.9247845527   -1.2420801165
H       -0.0018028742   -0.0331205242   -0.0868185958
H        3.8479522555   -1.9375685022    0.0927007490
H       -0.1816487761   -0.1907491293    2.3691526600
H        1.7258196317   -2.2838149042    4.4438616497
H        2.3739496588   -0.6391956796    4.6378692146
H        0.6234093471   -0.8919616431    4.4687194438
19   

C        1.9363925235   -0.9853876260   -0.1506169824
C        0.8136847509   -0.4611230251    0.4852155948
C        2.9593873654   -1.5566235962    0.6106044137
C        0.7113036870   -0.5301095507    1.8760717387
C        2.9062723215   -1.5765858363    2.0161713816
C        1.7362815276   -1.0996010505    2.6540212287
C        3.9688229597   -2.2750414679    2.7657164490
C        1.5625394001   -1.2074107161    4.1495200258
N        4.6164206646   -3.4047600792    2.3331004987
N        4.6573535591   -1.7310448502    3.7899223344
N        5.6354304801   -3.5700027848    3.2182614349
N        5.6617478047   -2.6017289322    4.0581537801
H        2.0172670728   -0.9565219834   -1.2304824159
H        0.0169409014   -0.0151333606   -0.0978136141
H        3.8273381987   -1.9828176295    0.1202176495
H       -0.1786342742   -0.1428820166    2.3569079534
H        1.7419734235   -2.2364879628    4.4763542790
H        2.2731421738   -0.5479395606    4.6567466595
H        0.5496916233   -0.9235343275    4.4485401428
19   

C        1.9330050125   -0.9841573331   -0.1429500555
C        0.8210119123   -0.4450028733    0.4965062725
C        2.9504600455   -1.5691969010    0.6142420224
C        0.7249990890   -0.5111824260    1.8871544183
C        2.9027742339   -1.5971760763    2.0219132325
C        1.7436361935   -1.0946941457    2.6641849726
C        3.9744814546   -2.2924191061    2.7533898635
C        1.5536871296   -1.1966191348    4.1588429541
N        4.7603958709   -3.2888160332    2.2288754243
N        4.5039126765   -1.8806023832    3.9255309946
N        5.7059605407   -3.5129076806    3.1800142416
N        5.5599498203   -2.6984434313    4.1590265949
H        2.0109785412   -0.9550966434   -1.2230415007
H        0.0279281697    0.0117048540   -0.0832185158
H        3.8102665042   -1.9998991619    0.1136302453
H       -0.1576034818   -0.1097924135    2.3699336412
H        1.7555303190   -2.2176258663    4.4975517479
H        2.2360807178   -0.5110781350    4.6701812733
H        0.5289240395   -0.9410413243    4.4423626129
19   

C        1.9408646666   -0.9680400930   -0.1414087562
C        0.8351178360   -0.4207265248    0.4991096634
C        2.9509919049   -1.5668796023    0.6137472996
C        0.7402317130   -0.4891450871    1.8889340580
C        2.8998683855   -1.6129742853    2.0227449082
C        1.7500598044   -1.0878931681    2.6673893615
C        3.9847233421   -2.2993167802    2.7395063757
C        1.5427468514   -1.1770326123    4.1612784978
N        4.8887882289   -3.1548095201    2.1575280626
N        4.3631397251   -2.0580804643    4.0145574999
N        5.7640609597   -3.4578794970    3.1528795175
N        5.4621280816   -2.8237958701    4.2249113617
H        2.0209229443   -0.9332476521   -1.2211940552
H        0.0470066727    0.0468351877   -0.0787579798
H        3.8065690306   -1.9962072894    0.1050035256
H       -0.1371969654   -0.0756020776    2.3709146267
H        1.6988402462   -2.2042018064    4.5051446300
H        2.2434750210   -0.5140270096    4.6775798054
H        0.5260605612   -0.8819414782    4.4352349610
19   

C        1.9471301151   -0.9584599398   -0.1317527731
C        0.8422441524   -0.4119306524    0.5086254121
C        2.9537454575   -1.5629878717    0.6226470867
C        0.7480920278   -0.4814739892    1.8978387852
C        2.8958956685   -1.6285105727    2.0320643820
C        1.7533187832   -1.0870386955    2.6784127058
C        3.9953571539   -2.2994207211    2.7397823891
C        1.5410972724   -1.1483397407    4.1736558634
N        5.0059821556   -3.0024930633    2.1282432178
N        4.2340750000   -2.2555283306    4.0704810047
N        5.8180956401   -3.3950755156    3.1454517734
N        5.3734954145   -2.9634844508    4.2669909666
H        2.0301783196   -0.9176793183   -1.2111127519
H        0.0561293789    0.0600486691   -0.0683858466
H        3.8089604207   -1.9862472867    0.1084749443
H       -0.1263634381   -0.0598806482    2.3782450471
H        1.6149478679   -2.1821412918    4.5247340579
H        2.2890768459   -0.5355120987    4.6857200734
H        0.5510603201   -0.7730938027    4.4470028729
19   

C        1.9490611949   -0.9392378290   -0.1206449078
C        0.8401401268   -0.4037211941    0.5211317753
C        2.9563301369   -1.5452237001    0.6313388243
C        0.7468483414   -0.4782200967    1.9099011417
C        2.8896277786   -1.6356760368    2.0395685775
C        1.7523652063   -1.0857150915    2.6891941157
C        4.0006950205   -2.2926900077    2.7421174567
C        1.5537886138   -1.1137758151    4.1875483732
N        5.1070269602   -2.8291781457    2.1268053424
N        4.1128394592   -2.4722962588    4.0784265762
N        5.8625837798   -3.3241630424    3.1428344108
N        5.2891798405   -3.1184620664    4.2699206788
H        2.0350200763   -0.8885878387   -1.1993634332
H        0.0529146296    0.0687553535   -0.0539598208
H        3.8146591970   -1.9578572329    0.1138332866
H       -0.1260306766   -0.0545767616    2.3913614952
H        1.5254250514   -2.1473183474    4.5457420719
H        2.3655853395   -0.5758819894    4.6865203644
H        0.6119202585   -0.6355310020    4.4700807069
19   

C        1.9650510752   -0.9253242479   -0.1289933594
C        0.8491779660   -0.3992909708    0.5094962407
C        2.9705785365   -1.5318206752    0.6252769013
C        0.7510885598   -0.4760764291    1.8980563352
C        2.8879203361   -1.6436113369    2.0305377487
C        1.7547527206   -1.0844898192    2.6784273693
C        4.0035603975   -2.2841938382    2.7410324163
C        1.5760857786   -1.0828356401    4.1793037136
N        5.1940612083   -2.6509519912    2.1597920211
N        4.0017280163   -2.6898776219    4.0314136977
N        5.8962634875   -3.2488631709    3.1586820754
N        5.2081766466   -3.2724198417    4.2393207516
H        2.0577365152   -0.8666084541   -1.2067408108
H        0.0631135480    0.0727337245   -0.0675467941
H        3.8358592936   -1.9363093213    0.1128389544
H       -0.1210482074   -0.0501014298    2.3788123035
H        1.4488902081   -2.1063574797    4.5446341078
H        2.4457288355   -0.6285689557    4.6638829901
H        0.6932685007   -0.5070704699    4.4705587235
19   

C        1.9533561175   -0.9113764691   -0.1047118118
C        0.8417963820   -0.3814847497    0.5403544934
C        2.9586474593   -1.5269190189    0.6434369841
C        0.7503204841   -0.4578531506    1.9299827952
C        2.8717613131   -1.6541421603    2.0457227526
C        1.7538471665   -1.0763453883    2.7011190506
C        3.9940132613   -2.2776808864    2.7619233294
C        1.6098411603   -1.0632629260    4.2050095798
N        5.2447399550   -2.4803401176    2.2302744797
N        3.9187161950   -2.8978611801    3.9607069138
N        5.9152674917   -3.1770908980    3.1860746899
N        5.1498101070   -3.4198663653    4.1848294443
H        2.0432139227   -0.8473052106   -1.1823835956
H        0.0564265967    0.0970782463   -0.0322165388
H        3.8244956931   -1.9317489998    0.1319964180
H       -0.1127562284   -0.0225620525    2.4186768207
H        1.4170488950   -2.0757064764    4.5723619669
H        2.5230998395   -0.6792428249    4.6699566951
H        0.7798311307   -0.4222553768    4.5148021568
19   

C        1.9621419299   -0.8952215100   -0.1079690507
C        0.8534099730   -0.3571405748    0.5380151821
C        2.9606018352   -1.5240732066    0.6393315527
C        0.7595359879   -0.4348248563    1.9282081162
C        2.8608232298   -1.6648955661    2.0374840594
C        1.7560233698   -1.0682433815    2.6948031379
C        3.9825596008   -2.2750299477    2.7698264874
C        1.6324016937   -1.0631905344    4.1998473307
N        5.2808136999   -2.3104652686    2.3238783982
N        3.8556228128   -3.0999417212    3.8315526837
N        5.9271244020   -3.1030853433    3.2199877615
N        5.1042968798   -3.5612981636    4.0895467448
H        2.0554525998   -0.8255423462   -1.1849830048
H        0.0738544245    0.1312133804   -0.0342165348
H        3.8297570251   -1.9317194212    0.1355682371
H       -0.0967923552    0.0101273453    2.4200383056
H        1.4084195199   -2.0717376291    4.5600720019
H        2.5673180363   -0.7223477180    4.6555620926
H        0.8318241034   -0.3931748663    4.5254211525
19   

C        1.9720502531   -0.8884930750   -0.1064922337
C        0.8722456215   -0.3309521401    0.5409587543
C        2.9601877635   -1.5353496388    0.6401394409
C        0.7778103514   -0.4052755903    1.9320999469
C        2.8512657270   -1.6791376454    2.0352382057
C        1.7644236525   -1.0571433436    2.6948285437
C        3.9675159454   -2.2887608050    2.7842942818
C        1.6556605255   -1.0660517933    4.2002885942
N        5.2932999173   -2.1535142872    2.4574695645
N        3.8267416922   -3.2988994247    3.6668802680
N        5.9336714826   -3.0343770582    3.2718423464
N        5.0869049225   -3.6987764048    3.9684199586
H        2.0666219164   -0.8186181271   -1.1833656034
H        0.1010615543    0.1708469544   -0.0309706810
H        3.8276606538   -1.9553101874    0.1435686679
H       -0.0688432039    0.0552736845    2.4262777864
H        1.4651738492   -2.0833783937    4.5551130237
H        2.5874845622   -0.7057915113    4.6474330203
H        0.8401869616   -0.4208474002    4.5387785871
19   

C        1.9574831792   -0.8989946199   -0.1186628331
C        0.8747185999   -0.3238351197    0.5446845078
C        2.9477640193   -1.5586395448    0.6145914382
C        0.7980625815   -0.3939152109    1.9380955103
C        2.8533038840   -1.6931356259    2.0094025463
C        1.7874170653   -1.0575900166    2.6861989474
C        3.9635459484   -2.3212377786    2.7613959464
C        1.7039935040   -1.0833749018    4.1924871946
N        5.2865944430   -1.9903481559    2.6242021141
N        3.8569347220   -3.4949659592    3.4128803299
N        5.9451735004   -2.9469491445    3.3319774384
N        5.1204345738   -3.8187128232    3.7843760897
H        2.0363292685   -0.8330272105   -1.1970319035
H        0.1022505253    0.1871848076   -0.0172556371
H        3.8042763696   -1.9940785600    0.1125958820
H       -0.0356013610    0.0774075860    2.4440302190
H        1.5978398180   -2.1143581383    4.5435648331
H        2.6152958526   -0.6580943967    4.6245899653
H        0.8479324869   -0.5036163578    4.5487211396
19   

C        1.8489213163   -1.0708990527   -0.1390990984
C        0.8050895393   -0.4369142623    0.5354708058
C        2.8745337238   -1.6818578899    0.5883504732
C        0.7900214907   -0.4157363614    1.9334945585
C        2.8707783298   -1.6678791825    1.9909939390
C        1.8153108104   -1.0264682970    2.6776962954
C        3.9666648118   -2.3211818288    2.7465600194
C        1.7842031311   -0.9942482175    4.1856406445
N        5.1330435117   -1.7245742490    3.1421151390
N        3.9413501959   -3.6094885617    3.1355332295
N        5.8001643198   -2.7165642807    3.7924727458
N        5.1149315999   -3.8028087512    3.7882781524
H        1.8669239503   -1.0913551554   -1.2220212330
H        0.0073975595    0.0381461760   -0.0227854154
H        3.6916394750   -2.1785165985    0.0784215488
H       -0.0259337311    0.0797517023    2.4451754165
H        1.7623511524   -2.0149252998    4.5802848690
H        2.6790714296   -0.4921457984    4.5665624566
H        0.9021698947   -0.4601135029    4.5496169105
19   

C        1.7382906118   -1.2367046262   -0.1255329721
C        0.7298788964   -0.5472773219    0.5458860297
C        2.7934162703   -1.7978502926    0.5989109309
C        0.7705695675   -0.4404449319    1.9386258533
C        2.8822410815   -1.6431000673    1.9916497692
C        1.8291141332   -0.9971011061    2.6798095479
C        3.9681802901   -2.3195676378    2.7367815640
C        1.8135586160   -0.9125598158    4.1869343294
N        4.8399098498   -1.7129746264    3.6048067850
N        4.0708075598   -3.6576991052    2.8548130915
N        5.5249907070   -2.7444930060    4.1669972747
N        5.0800913264   -3.8675623629    3.7362234861
H        1.7035247694   -1.3433909916   -1.2029646339
H       -0.0910280749   -0.1087983822   -0.0086273154
H        3.5721706652   -2.3540688199    0.0904267814
H       -0.0331022594    0.0743386133    2.4507295447
H        1.9473299420   -1.9086952486    4.6208763782
H        2.6256620769   -0.2666954221    4.5338512400
H        0.8652263273   -0.5048332214    4.5476174513
19   

C        1.7287555007   -1.2468295133   -0.1157139144
C        0.7284809598   -0.5410219131    0.5479814665
C        2.7816805716   -1.8039991444    0.6139581796
C        0.7748967512   -0.4173742267    1.9382278108
C        2.8835714748   -1.6292174262    2.0052937515
C        1.8315385312   -0.9706701225    2.6858215172
C        3.9687841710   -2.3149232206    2.7343806191
C        1.7984175527   -0.8709077856    4.1921009143
N        4.6858912245   -1.8114355461    3.7916673254
N        4.2317044670   -3.6320631096    2.6076443522
N        5.4433477589   -2.8565337785    4.2186349018
N        5.1798108572   -3.9092129898    3.5367298220
H        1.6896201088   -1.3705140812   -1.1911874690
H       -0.0916108496   -0.1051184047   -0.0097655824
H        3.5522483747   -2.3742519728    0.1080059932
H       -0.0259069688    0.1072906215    2.4447982617
H        1.9581718126   -1.8571775923    4.6394426966
H        2.5833046119   -0.1927144566    4.5398513784
H        0.8331936682   -0.4919479879    4.5391498687
19   

C        1.7375078286   -1.2386371227   -0.1073871513
C        0.7434685253   -0.5185668955    0.5477295900
C        2.7783112828   -1.8073163905    0.6298376765
C        0.7857730121   -0.3898902997    1.9368086814
C        2.8746337864   -1.6393703907    2.0247449221
C        1.8294205531   -0.9554532675    2.6944537541
C        3.9599924878   -2.3277345958    2.7434725150
C        1.7792111895   -0.8377668400    4.1991931079
N        4.5549889284   -1.9491308989    3.9226121757
N        4.3910727088   -3.5643991358    2.4127319845
N        5.3981696699   -2.9706743981    4.2277674303
N        5.3023891639   -3.9053874733    3.3569783382
H        1.7043026843   -1.3638354651   -1.1829031020
H       -0.0676080483   -0.0735053615   -0.0159420540
H        3.5443812686   -2.3829470796    0.1227861177
H       -0.0099204147    0.1500974450    2.4352758949
H        1.9036788768   -1.8228720340    4.6597625893
H        2.5760547344   -0.1753957891    4.5503546838
H        0.8201545931   -0.4292013187    4.5293993451
19   

C        1.7445077292   -1.2286838006   -0.1057590686
C        0.7568612478   -0.4977683988    0.5443228295
C        2.7735821733   -1.8122233760    0.6356320395
C        0.7971966556   -0.3679188571    1.9323679855
C        2.8618877488   -1.6617753798    2.0359765664
C        1.8281938520   -0.9488275322    2.6964931493
C        3.9514987207   -2.3480409588    2.7456013570
C        1.7723834471   -0.8078267335    4.1992279308
N        4.4378542727   -2.1011474103    4.0071057542
N        4.5575342931   -3.4537549456    2.2563246309
N        5.3761937355   -3.0622284618    4.2143708563
N        5.4447035559   -3.8454616568    3.2035887321
H        1.7172659208   -1.3495408352   -1.1819591936
H       -0.0452856235   -0.0411857959   -0.0229117109
H        3.5345258669   -2.3875557324    0.1206896823
H        0.0092397323    0.1882478604    2.4253066603
H        1.8351786661   -1.7920140326    4.6737350772
H        2.6013568790   -0.1853496870    4.5491334226
H        0.8357505758   -0.3408610732    4.5161295657
19   

C        1.7528150231   -1.2351971533   -0.1155029512
C        0.7708683833   -0.4916728119    0.5266496042
C        2.7697444886   -1.8309223910    0.6325214448
C        0.8086574796   -0.3555303058    1.9132871519
C        2.8473026993   -1.6936119805    2.0374209285
C        1.8268858853   -0.9486340175    2.6856255524
C        3.9413727971   -2.3720542649    2.7462663155
C        1.7731212069   -0.7745692946    4.1851265189
N        4.3220201899   -2.2558808264    4.0619892854
N        4.7209919248   -3.3071917447    2.1543707971
N        5.3552636053   -3.1263295752    4.2084890210
N        5.5858477175   -3.7352612493    3.1062934401
H        1.7322032428   -1.3551875343   -1.1919632625
H       -0.0218394008   -0.0255937405   -0.0461133178
H        3.5250858876   -2.4086945715    0.1124855339
H        0.0293349810    0.2190812539    2.3987376811
H        1.7628645997   -1.7512780395    4.6784900152
H        2.6411235811   -0.2040258795    4.5290039144
H        0.8706299834   -0.2361511704    4.4874196539
19   

C        1.7689934924   -1.2234384726   -0.1251550332
C        0.7811819916   -0.4865580269    0.5147013578
C        2.7815407024   -1.8227712275    0.6258001531
C        0.8131231338   -0.3543195051    1.9014727935
C        2.8426805552   -1.7077621576    2.0346118930
C        1.8264778898   -0.9514359991    2.6772974018
C        3.9456562309   -2.3727523235    2.7424947441
C        1.7803620684   -0.7543727387    4.1742553867
N        4.2170592462   -2.4062503611    4.0896779272
N        4.8977458642   -3.0862967864    2.0958680308
N        5.3456833146   -3.1542597538    4.2048861659
N        5.7398653409   -3.5478324765    3.0524423030
H        1.7570916342   -1.3348886023   -1.2026708114
H       -0.0083716837   -0.0180563657   -0.0604425999
H        3.5406425578   -2.3925146961    0.1026127852
H        0.0347185540    0.2239438780    2.3840473881
H        1.6934639542   -1.7212339956    4.6791693951
H        2.6876151215   -0.2468268203    4.5157177455
H        0.9217271714   -0.1431117880    4.4655762727
