27   

C       -1.6593460722   -0.4133524758    1.7487592176
C       -0.5849510587   -0.6254101642    0.8657599481
C       -2.4634105883   -1.4907444060    2.1525942975
C       -0.3101713817   -1.9135735013    0.3831790194
C       -2.1789734393   -2.7713285516    1.6663595953
C       -1.1217051641   -2.9713684069    0.7980870917
C       -2.8842556742   -4.0204125201    1.9706942448
C       -2.2416826896   -7.1384680975    2.7179635747
C       -2.7253462448   -8.2178324353    3.4071552909
C       -2.8697131865   -6.4889223063    1.5006027502
C       -3.6649704999   -8.2393293566    4.5758054572
N       -2.3453922993   -5.1457436604    1.3860003692
O       -3.8742114456   -4.0699481558    2.6867315377
O       -1.3416713809   -4.9652627775   -1.0488777784
O        0.2263952366   -5.3419526421    0.8257098098
S       -1.0255480189   -4.7216393460    0.3663174839
Br      -2.7333419644   -8.8260780485    6.2247861667
H       -1.8673757845    0.5840882280    2.1204737681
H        0.0351997552    0.2084425196    0.5561859259
H       -3.2947575415   -1.3431747516    2.8352892503
H        0.5176776920   -2.0869715257   -0.2983629619
H       -1.1585332748   -7.0634496357    2.6963296729
H       -1.9766084651   -8.9960083034    3.5193576048
H       -2.6334896467   -7.0694671266    0.6014677855
H       -3.9607039169   -6.4684916067    1.6041258338
H       -4.5022959582   -8.9113549815    4.3657369270
H       -4.0698072642   -7.2346374443    4.7352600183
27   

C       -1.6973625796   -0.5310371997    1.9749620135
C       -0.6662530300   -0.6359358342    1.0237109118
C       -2.4514495125   -1.6620389013    2.3260285320
C       -0.3844556450   -1.8702816825    0.4203722674
C       -2.1615994318   -2.8883835809    1.7184067847
C       -1.1457646911   -2.9824799248    0.7846077462
C       -2.8211826868   -4.1790060832    1.9454886162
C       -2.0467048257   -7.2578584616    2.4638357716
C       -2.6513860754   -8.1200049121    3.3244266904
C       -2.7363604555   -6.6033213883    1.2859784176
C       -3.6231053601   -7.7431052720    4.4029102130
N       -2.3048319056   -5.2263036553    1.2147012068
O       -3.7597033280   -4.3262058212    2.7159172179
O       -1.3822550187   -4.8109614621   -1.2233853809
O        0.2511863289   -5.3148365362    0.5624829032
S       -1.0269933192   -4.6849544464    0.1979508081
Br      -2.8999385427   -8.2023954625    6.1903344628
H       -1.9108881743    0.4253526025    2.4396993260
H       -0.0851566298    0.2390584641    0.7545060922
H       -3.2494955866   -1.5965507883    3.0592872265
H        0.4098927561   -1.9614157432   -0.3149602590
H       -0.9938954201   -7.4459165284    2.2769319346
H       -2.0383363960   -8.9730536352    3.5982246684
H       -2.4660493446   -7.1261223065    0.3613581663
H       -3.8253530375   -6.6655104876    1.3939016066
H       -4.5722957747   -8.2633880260    4.2448305353
H       -3.8177796112   -6.6659963851    4.3620240306
27   

C       -1.7310373093   -0.5682630727    2.0081673025
C       -0.7074702724   -0.6644468999    1.0479127069
C       -2.4760025024   -1.7044702306    2.3615391414
C       -0.4241112782   -1.8952778133    0.4379617934
C       -2.1842855179   -2.9271758757    1.7474715505
C       -1.1761121680   -3.0129776077    0.8048598194
C       -2.8337293392   -4.2221201562    1.9773972674
C       -1.9698437133   -7.3268292010    2.4280738735
C       -2.5490292786   -8.0933561616    3.3796831040
C       -2.7368325766   -6.6469510953    1.3158672500
C       -3.5952139010   -7.6188412301    4.3421323613
N       -2.3078007423   -5.2683014003    1.2518228928
O       -3.7741909084   -4.3719090405    2.7446647565
O       -1.4354311430   -4.8394043871   -1.2017474411
O        0.2374215716   -5.3322966569    0.5501202857
S       -1.0535670048   -4.7134976486    0.2127049592
Br      -3.0243866551   -7.9532026481    6.2101258997
H       -1.9456373833    0.3852638646    2.4782888779
H       -0.1333648025    0.2146147302    0.7769862619
H       -3.2678786364   -1.6458914904    3.1020678355
H        0.3645162519   -1.9795533463   -0.3042840992
H       -0.9407401480   -7.5648022418    2.1773278593
H       -1.9319295804   -8.9031526391    3.7562873890
H       -2.5279807100   -7.1457650920    0.3625316237
H       -3.8167202827   -6.7130019499    1.4916901466
H       -4.5384490413   -8.1380253719    4.1489632747
H       -3.7666802945   -6.5459875669    4.2083657943
27   

C       -1.7179381728   -0.5735017871    2.0086294987
C       -0.6833875091   -0.6719353168    1.0604847049
C       -2.4717153735   -1.7073346363    2.3502188641
C       -0.3977507680   -1.9027169398    0.4512045262
C       -2.1771266381   -2.9298926007    1.7371691217
C       -1.1584206089   -3.0183315005    0.8066740881
C       -2.8331941128   -4.2225975354    1.9585855214
C       -1.9139682684   -7.3823695393    2.3238916754
C       -2.4306474994   -8.0452002873    3.3765805128
C       -2.7408742559   -6.6487247590    1.2927283878
C       -3.5128365205   -7.5291997523    4.2711740701
N       -2.2874320630   -5.2758347103    1.2577859904
O       -3.7976488564   -4.3610838065    2.6972651060
O       -1.4254342595   -4.8447988508   -1.1982594873
O        0.2569365954   -5.3359792931    0.5444322068
S       -1.0368817479   -4.7190964478    0.2144258680
Br      -2.9942548045   -7.7389214471    6.1718155195
H       -1.9340622414    0.3796921166    2.4787646950
H       -0.1024827159    0.2053891847    0.7986143398
H       -3.2717966273   -1.6473369789    3.0818007471
H        0.3994132668   -1.9885415217   -0.2816416987
H       -0.9200587481   -7.6753713944    2.0002213049
H       -1.7946080341   -8.8119039525    3.8078515842
H       -2.6037028024   -7.1109751016    0.3084620325
H       -3.8084112853   -6.7048421358    1.5345677696
H       -4.4405829046   -8.0774929096    4.0836114379
H       -3.6984307649   -6.4705677901    4.0692603242
27   

C       -1.9746311196   -0.7051138648    2.1278079289
C       -0.7381276819   -0.8435083260    1.4714463278
C       -2.8418574689   -1.8033823888    2.2363737654
C       -0.3632906512   -2.0791607136    0.9232905483
C       -2.4575914451   -3.0302422379    1.6851667622
C       -1.2402563803   -3.1586609090    1.0433246918
C       -3.2052711985   -4.2911374642    1.7031468706
C       -2.1571289470   -7.5717021588    2.0648653072
C       -2.3978157972   -7.7584959459    3.3742464612
C       -3.0106001597   -6.7364544473    1.1307532560
C       -3.0757600150   -6.7780394567    4.2713249015
N       -2.5450312495   -5.3655512361    1.1467623832
O       -4.3344225913   -4.3878938644    2.1644681383
O       -1.0815211732   -4.9399792039   -1.0059817610
O        0.1087643144   -5.5288169561    1.0749209501
S       -1.0476472127   -4.8570640244    0.4623837352
Br      -1.7881037113   -5.3828864006    4.8456842480
H       -2.2588361071    0.2507489130    2.5540377194
H       -0.0693400007    0.0059371787    1.3898629132
H       -3.7970172280   -1.7140948718    2.7446208059
H        0.5904713989   -2.1971946030    0.4172897680
H       -1.4570870111   -8.2514878938    1.5906192222
H       -1.9065692710   -8.5941474450    3.8614138169
H       -2.9492957219   -7.1353668801    0.1120191536
H       -4.0618776688   -6.7927173396    1.4350922994
H       -3.4542012368   -7.2967027898    5.1572936860
H       -3.9304551105   -6.3180359692    3.7676713566
27   

C       -1.9824688941   -0.6791605621    2.1361279664
C       -0.7310962326   -0.8400346248    1.5139923291
C       -2.8600424932   -1.7688968468    2.2459725574
C       -0.3521160795   -2.0894905789    1.0007679064
C       -2.4708775528   -3.0097111918    1.7306227790
C       -1.2398331424   -3.1602177107    1.1209449841
C       -3.2258449327   -4.2655691756    1.7606046349
C       -2.2348967566   -7.6262595508    2.0767802459
C       -2.3187894407   -7.6971203570    3.4142937828
C       -3.0630308951   -6.7144554534    1.1926525079
C       -2.9906768944   -6.6989378142    4.2918111794
N       -2.5512653015   -5.3612148008    1.2656007771
O       -4.3697844809   -4.3422665769    2.1880001512
O       -1.0728460757   -4.9894158551   -0.8851133684
O        0.1036710281   -5.5323877003    1.2162441839
S       -1.0473136722   -4.8725916283    0.5812031211
Br      -1.6900346423   -5.3144778702    4.8615835624
H       -2.2699988243    0.2872619121    2.5355086152
H       -0.0540024080    0.0027673956    1.4321177771
H       -3.8264713189   -1.6625973672    2.7290530546
H        0.6131900763   -2.2247476410    0.5217389339
H       -1.6186674260   -8.3648510909    1.5751866282
H       -1.7878863268   -8.5031288844    3.9097252173
H       -3.0242230821   -7.0673158403    0.1559311820
H       -4.1131111966   -6.7503228365    1.5040080610
H       -3.3790754988   -7.2040530573    5.1812735113
H       -3.8400563461   -6.2353760199    3.7835420961
27   

C       -2.0084016926   -0.7522401859    1.9731361780
C       -0.7347618225   -0.9230988684    1.4008546802
C       -2.8864896731   -1.8421427683    2.0758692238
C       -0.3341377849   -2.1826674453    0.9303553365
C       -2.4753337708   -3.0929804298    1.6037288099
C       -1.2228889504   -3.2534409989    1.0424908885
C       -3.2266319810   -4.3506070801    1.6371185807
C       -2.2692075878   -7.7437422477    1.9987581456
C       -2.2338723811   -7.6932647892    3.3386759876
C       -3.0522741555   -6.8047697322    1.1019614710
C       -2.9553844133   -6.7084033778    4.1876168472
N       -2.5283446380   -5.4574985214    1.2033324661
O       -4.3863555811   -4.4205532307    2.0209224240
O       -0.9916367045   -5.1302380907   -0.9125940018
O        0.1280298740   -5.6158852028    1.2335442990
S       -1.0075549355   -4.9776742530    0.5506177998
Br      -1.7076632817   -5.2869995893    4.7833588382
H       -2.3127703941    0.2219462904    2.3398531535
H       -0.0572288907   -0.0801198211    1.3247568558
H       -3.8699909570   -1.7283588586    2.5213555399
H        0.6484542449   -2.3255521643    0.4903074519
H       -1.6943324950   -8.5239573877    1.5113722045
H       -1.6521425836   -8.4505715713    3.8535217832
H       -2.9848141212   -7.1459361612    0.0627556563
H       -4.1124218600   -6.8316034619    1.3781248364
H       -3.3521934990   -7.2184328281    5.0705251854
H       -3.8051247145   -6.2716973209    3.6569746946
27   

C       -1.9603466489   -0.3548636489    1.7552223344
C       -0.6739520270   -0.5417620765    1.2175267671
C       -2.8398465800   -1.4421897688    1.8718319461
C       -0.2619940405   -1.8148173150    0.7955622985
C       -2.4172877584   -2.7064716296    1.4481313207
C       -1.1524455886   -2.8827401763    0.9206262534
C       -3.1681536828   -3.9634500989    1.5039517360
C       -2.2552179313   -7.3651411131    1.9663081283
C       -2.1016192111   -7.1818079637    3.2863494365
C       -2.9901478444   -6.4281046657    1.0259263298
C       -2.8697100749   -6.2190266955    4.1176706388
N       -2.4592178164   -5.0829384954    1.1228547857
O       -4.3360379643   -4.0234190038    1.8639544899
O       -0.8784379618   -4.8199310713   -0.9690142516
O        0.1958237253   -5.2362253411    1.2146855244
S       -0.9253886605   -4.6213098404    0.4880137780
Br      -1.6850157958   -4.7433947913    4.7094623205
H       -2.2735450877    0.6297960338    2.0846299822
H        0.0046402150    0.2993252831    1.1307572647
H       -3.8331952374   -1.3160331443    2.2913911828
H        0.7304737214   -1.9700344962    0.3827114739
H       -1.7149828032   -8.1882391841    1.5109242122
H       -1.4638968897   -7.8817673201    3.8158882838
H       -2.8856238217   -6.7863686694   -0.0044580801
H       -4.0606356825   -6.4411748654    1.2600281874
H       -3.2525767983   -6.7357704397    5.0028222972
H       -3.7318137318   -5.8222167222    3.5752937418
27   

C       -2.0010859567   -0.5283490328    1.8594649972
C       -0.7087198724   -0.7163706692    1.3367089379
C       -2.8867379523   -1.6126197521    1.9547465811
C       -0.2972463471   -1.9873638601    0.9078058839
C       -2.4642539240   -2.8747673962    1.5247134664
C       -1.1941745704   -3.0522399008    1.0109337335
C       -3.2209382406   -4.1286397258    1.5605902900
C       -2.4339083145   -7.5649492623    1.9927746249
C       -2.1354359815   -7.3151813326    3.2784786854
C       -3.0652661811   -6.5799642881    1.0241176187
C       -2.8704591038   -6.3674081115    4.1556929217
N       -2.5117296886   -5.2496347733    1.1837665489
O       -4.3937519584   -4.1850805558    1.9048614913
O       -0.9173883628   -4.9729237920   -0.8950472478
O        0.1417045061   -5.4153298521    1.2908547398
S       -0.9720345911   -4.7878832811    0.5635289740
Br      -1.6636793585   -4.9081933803    4.7432117075
H       -2.3141733477    0.4546273422    2.1939897830
H       -0.0252292203    0.1223042778    1.2668263214
H       -3.8847743828   -1.4858963215    2.3628977951
H        0.6997471042   -2.1433250555    0.5063556583
H       -1.9793157503   -8.4429580281    1.5466121150
H       -1.4768757075   -8.0173397664    3.7788192075
H       -2.8963754011   -6.9207348933   -0.0037334299
H       -4.1502475065   -6.5670667721    1.1776935164
H       -3.2265220809   -6.9022273411    5.0412924214
H       -3.7478788700   -5.9573533598    3.6482020904
27   

C       -2.0837668910   -0.4478354541    1.9526623842
C       -0.7878247387   -0.6395971497    1.4402468064
C       -2.9868774057   -1.5205496239    2.0026355408
C       -0.3904346677   -1.9026222508    0.9757408486
C       -2.5781244759   -2.7748360758    1.5378019244
C       -1.3048229272   -2.9560356741    1.0332490542
C       -3.3531155052   -4.0177399429    1.5285285002
C       -2.7331514256   -7.4575460379    1.9556633202
C       -2.2824635722   -7.1638540464    3.1889700416
C       -3.2287078952   -6.4540594694    0.9251220536
C       -2.9451420919   -6.2134980658    4.1228458576
N       -2.6556930920   -5.1377969264    1.1279425321
O       -4.5288647059   -4.0677762474    1.8637179122
O       -1.0418398648   -4.8212313423   -0.9293453572
O       -0.0062358447   -5.3480534361    1.2487911058
S       -1.1044794645   -4.6804449151    0.5338183237
Br      -1.6767349001   -4.7926626736    4.6722813617
H       -2.3860311110    0.5287574678    2.3147165081
H       -0.0906150977    0.1899355268    1.4061786086
H       -3.9877166864   -1.3914036546    2.4031074898
H        0.6092936369   -2.0614438969    0.5823698461
H       -2.3940059579   -8.4002077832    1.5398651050
H       -1.6230859963   -7.8885853085    3.6549094927
H       -2.9747870609   -6.8092440934   -0.0801563096
H       -4.3224260448   -6.4030411800    0.9713879498
H       -3.2668095700   -6.7562043082    5.0167811983
H       -3.8376987484   -5.7750707011    3.6675718105
27   

C       -2.2743713291   -0.6511545368    1.8374741947
C       -0.9921982151   -0.8231428931    1.2849887010
C       -3.1777875830   -1.7242161623    1.8668040764
C       -0.6092316111   -2.0663819833    0.7587550578
C       -2.7830274818   -2.9588275441    1.3412493111
C       -1.5238110476   -3.1205554361    0.7960002095
C       -3.5582305293   -4.2008777687    1.3070401092
C       -3.1309207005   -7.5813606233    1.7597626086
C       -2.5016044253   -7.2935892970    2.9190447598
C       -3.4490403754   -6.6155622683    0.6299927328
C       -2.9889088981   -6.3056740845    3.9238525774
N       -2.8701232590   -5.3057105895    0.8526511884
O       -4.7238903132   -4.2646329537    1.6737951793
O       -1.3318278252   -4.9076415244   -1.2465217981
O       -0.2193145498   -5.5208099759    0.8697571038
S       -1.3410040429   -4.8242105007    0.2222952956
Br      -1.5835790978   -4.9671599813    4.3245620557
H       -2.5653938542    0.3099668621    2.2470418336
H       -0.2942854078    0.0062992806    1.2679072741
H       -4.1675417154   -1.6109453248    2.2984326766
H        0.3800584137   -2.2098659878    0.3344172696
H       -2.9872471725   -8.5980570125    1.4103765243
H       -1.8943771335   -8.0869947893    3.3420017469
H       -3.0831809212   -7.0263564647   -0.3180051514
H       -4.5369626325   -6.5265558866    0.5319703412
H       -3.2402011599   -6.8315236881    4.8498684149
H       -3.8984193815   -5.8112621846    3.5705629247
27   

C       -2.3235434428   -0.7263391997    1.8624208216
C       -1.0395036861   -0.8697640352    1.3061238243
C       -3.2213266663   -1.8043894994    1.8480018802
C       -0.6488611093   -2.0892367698    0.7321103874
C       -2.8191806078   -3.0153355504    1.2752513688
C       -1.5576211302   -3.1490068313    0.7261418446
C       -3.5869411299   -4.2599808351    1.1948672549
C       -3.2988511479   -7.4975833474    1.7644863918
C       -2.5669806135   -7.2211404201    2.8736703033
C       -3.4332301542   -6.6682588729    0.5019962997
C       -2.9247399161   -6.2130769203    3.9160057398
N       -2.8942302632   -5.3371051708    0.6866857991
O       -4.7473464191   -4.3510023663    1.5724259048
O       -1.3393293285   -4.8560766975   -1.3823241128
O       -0.2457648889   -5.5493610699    0.7188497084
S       -1.3619013299   -4.8287723667    0.0883888003
Br      -1.4409265259   -4.9288546985    4.1847698187
H       -2.6201882150    0.2163230526    2.3091308268
H       -0.3458430827   -0.0367872045    1.3234590227
H       -4.2121817400   -1.7134546097    2.2823141896
H        0.3421353950   -2.2107423182    0.3049471312
H       -3.3510055931   -8.5560917067    1.5340672684
H       -2.0290258432   -8.0659546089    3.2908372521
H       -2.9255607685   -7.1713934279   -0.3288878330
H       -4.4924309439   -6.5946937301    0.2303025775
H       -3.1160438889   -6.7263861743    4.8632068637
H       -3.8400088141   -5.6826932071    3.6362582782
27   

C       -2.1639296510   -0.5936550414    2.1245595479
C       -0.8589126917   -0.7055496412    1.6115665486
C       -3.0413835218   -1.6868203575    2.0620586142
C       -0.4261344123   -1.9091665619    1.0349222242
C       -2.5984928192   -2.8813111502    1.4847626746
C       -1.3147309189   -2.9844328725    0.9820648939
C       -3.3442747451   -4.1353123919    1.3500736445
C       -3.1001779352   -7.1964923238    2.0838930992
C       -2.3578907102   -6.8922710436    3.1893321627
C       -3.0793036541   -6.5504790748    0.7129626751
C       -2.7244262811   -5.9153196324    4.2602966305
N       -2.6348434573   -5.1752939226    0.7899059606
O       -4.5053509000   -4.2602750952    1.7159601463
O       -0.9150363454   -4.6463399871   -1.1352183152
O       -0.0008301330   -5.3823943647    1.0356698012
S       -1.0617658813   -4.6494756638    0.3285379991
Br      -1.2831299752   -4.5782208037    4.4946326798
H       -2.4930010275    0.3368155517    2.5739848966
H       -0.1816830013    0.1393487254    1.6644778015
H       -4.0488056574   -1.6194368620    2.4609389400
H        0.5810969942   -2.0067451973    0.6408271444
H       -3.2918925344   -8.2587590438    1.9792659324
H       -1.8316093870   -7.7407331982    3.6139846588
H       -2.4243240999   -7.1234168230    0.0466761276
H       -4.0858365533   -6.5790659675    0.2806619441
H       -2.8678733874   -6.4466661784    5.2060714280
H       -3.6650612763   -5.4148469350    4.0088405714
