67

C      2.50025    0.59899    0.45414
C      2.78486    2.96646   -0.14025
C      0.58829    1.91519   -0.04698
C      1.12003    0.67366    0.30709
C     -0.77316    2.26458   -0.25019
C      3.33102    1.73606    0.24234
C      1.39242    3.04938   -0.28555
C     -0.80019    3.59428   -0.61870
C      0.56141   -4.78658    0.36163
C     -1.81684    1.24344    0.07365
C      0.73272   -1.76895   -0.21936
C     -1.59687   -2.65247    0.17573
C      0.14463   -0.49149    0.43112
C     -0.35130   -2.75117   -0.70522
C     -1.21577   -0.14625   -0.23185
C      4.82333    1.59517    0.44169
C     -5.12818   -1.73259    2.63098
C      3.09121   -6.30520    1.83898
C      0.45167   -7.35935   -1.72517
C     -2.42549    5.52847    0.52690
C     -4.16406   -2.12891    1.50473
C      1.68255   -6.68562    1.38006
C      1.58615   -6.52164   -1.12492
C     -3.11831   -1.03424    1.29563
N      0.52222    4.06767   -0.63468
N      0.08374   -4.14304   -0.78712
N      1.25905   -5.94325    0.18107
N     -2.23866   -1.27427    0.08181
O      0.31528   -4.31179    1.48243
S     -2.16506    4.61475   -1.04991
H      2.97789   -0.33924    0.72718
H      3.43138    3.82221   -0.31599
H     -2.06547    1.32189    1.13720
H     -2.73850    1.40236   -0.49786
H      1.36087   -1.48391   -1.06780
H      1.36507   -2.27575    0.50936
H     -2.34412   -3.38592   -0.12599
H     -1.32810   -2.82760    1.21435
H     -0.03863   -0.68796    1.49621
H     -0.64436   -2.48871   -1.72847
H     -1.08048   -0.20420   -1.31583
H      5.21816    0.73296   -0.10595
H      5.36024    2.48378    0.10082
H      5.06445    1.44586    1.50037
H     -4.59507   -1.58659    3.57588
H     -5.66357   -0.80732    2.39521
H     -5.87088   -2.51864    2.78709
H      3.83211   -6.48449    1.05247
H      3.12649   -5.24799    2.11586
H      3.37790   -6.89927    2.71266
H      0.18423   -8.18023   -1.05324
H     -0.44609   -6.75621   -1.89110
H      0.76049   -7.79032   -2.68292
H     -3.27253    6.19746    0.35735
H     -1.54660    6.12177    0.78439
H     -2.66360    4.83758    1.33776
H     -4.72885   -2.28013    0.57492
H     -3.68790   -3.08043    1.75309
H      0.96050   -6.48509    2.17169
H      1.62684   -7.75241    1.14117
H      1.90369   -5.73397   -1.81868
H      2.47265   -7.14535   -0.98441
H     -3.61928   -0.07992    1.14331
H     -2.44916   -0.94564    2.15419
H      0.77870    4.98782   -0.96806
H      0.46665   -4.41751   -1.68094
H     -2.87261   -1.29055   -0.72201
