30   

C        7.4088334641   -5.7624291309    4.4739046734
C        8.6979261055   -8.9570541258    2.0699019890
C        8.8879924924   -8.8987452271    0.6948084849
C        7.7535028356   -8.1295081758    2.6791819313
C        5.8578409554   -6.0616119792    7.1835982377
C        8.1260848356   -8.0143244598   -0.0651371685
C        6.6865392831   -6.2884940301    8.2865597166
C        7.2543589770   -3.9523506804    8.3327714745
C        6.9639628494   -7.2189819566    1.9357089883
C        5.7276244044   -4.7743017202    6.6362218912
C        7.3946527513   -5.2352442844    8.8692162920
C        7.1648255576   -7.1798421310    0.5231616368
C        6.4266311967   -3.7054136633    7.2305962255
C        6.1084805353   -5.8316144251    3.8837436596
C        5.9329487567   -6.3757122745    2.6157510687
N        8.4743345261   -5.7279519448    4.9459041382
N        4.8933595728   -4.5401394528    5.5500846125
N        4.9922252710   -5.1398737698    4.4085954318
O        4.7966623889   -6.1701124576    1.9578735073
Cl       8.4334037911   -5.5136080172   10.2444561030
Cl       6.3404160564   -6.0487085150   -0.5386602703
Cl       6.2961572343   -2.0748726320    6.6006382067
H        9.2772497051   -9.6503337235    2.6696991096
H        9.6251220953   -9.5348002099    0.2169565951
H        7.6131533966   -8.2443986881    3.7473119854
H        5.3105762900   -6.8866754857    6.7425664085
H        8.2865328973   -7.9561808047   -1.1354553245
H        6.7852658462   -7.2871936940    8.6955820308
H        7.8008766506   -3.1291594654    8.7764546869
H        4.2277556035   -5.5759234980    2.4810664248
30   

C        7.4340434616   -5.6053752183    4.3806631357
C        8.6863797664   -8.9467393896    2.1270477457
C        8.8700334245   -8.9524374856    0.7503169352
C        7.7486242895   -8.0877966659    2.7016106015
C        5.9826999189   -6.1529124438    7.1333647043
C        8.1094419049   -8.0993956111   -0.0455029936
C        6.8341079407   -6.3726421260    8.2201064628
C        7.2340189512   -4.0068529424    8.3776150201
C        6.9574545678   -7.2089710861    1.9220383853
C        5.7540928896   -4.8532268736    6.6515814170
C        7.4692999113   -5.3006893564    8.8506328651
C        7.1542826744   -7.2333360908    0.5065191937
C        6.3811537405   -3.7670192348    7.2932335310
C        6.1170346657   -5.8311998838    3.8741944966
C        5.9375271114   -6.3380708243    2.5859440417
N        8.5149177105   -5.4460367557    4.7869469804
N        4.8902794874   -4.6249574422    5.5870793023
N        4.9801287516   -5.2088533182    4.4374860048
O        4.8528744645   -6.0141993870    1.8923555684
Cl       8.5338740761   -5.5698519913   10.2077496136
Cl       6.3339638718   -6.1557032073   -0.6130671332
Cl       6.1295489556   -2.1212488716    6.7445205888
H        9.2663372460   -9.6137874897    2.7553019543
H        9.6017510537   -9.6133311387    0.2985507480
H        7.6168237563   -8.1488249489    3.7753658525
H        5.4902434386   -6.9927457675    6.6570567856
H        8.2657953806   -8.0917056360   -1.1180052845
H        7.0056251846   -7.3801424076    8.5805083926
H        7.7239657674   -3.1688576717    8.8582276371
H        4.3003565955   -5.4125770634    2.4244903119
30   

C        7.4455351276   -5.4645795599    4.3275162015
C        8.6935172841   -8.9465173247    2.2006227818
C        8.8735435204   -9.0102790332    0.8252303390
C        7.7606666234   -8.0606949730    2.7409412325
C        6.1027068467   -6.2327087543    7.1192239843
C        8.1145804653   -8.1879214537   -0.0033785849
C        6.9779450485   -6.4234596371    8.1921843855
C        7.2159185588   -4.0410719998    8.4141966691
C        6.9688383606   -7.2127677684    1.9281615635
C        5.7778012288   -4.9391481320    6.6788723625
C        7.5436999469   -5.3283475754    8.8484693924
C        7.1633257202   -7.2955840936    0.5128099393
C        6.3367538079   -3.8304692198    7.3448403755
C        6.1432556347   -5.8478668214    3.8836756551
C        5.9606342602   -6.3144753670    2.5735965907
N        8.5175732089   -5.1776427086    4.6834689253
N        4.8830174037   -4.7416465693    5.6339175044
N        4.9802428440   -5.3104085232    4.4778198192
O        4.9437916399   -5.8721950354    1.8471299589
Cl       8.6355924099   -5.5615428182   10.1903812312
Cl       6.3409562719   -6.2755307411   -0.6583234502
Cl       5.9672324420   -2.1911970331    6.8454717047
H        9.2735441320   -9.5883316366    2.8545668033
H        9.6013552635   -9.6923893226    0.3994119422
H        7.6368094552   -8.0717975804    3.8173793398
H        5.6627108207   -7.0907103009    6.6243497836
H        8.2680310019   -8.2268430544   -1.0756524264
H        7.2206095148   -7.4264518668    8.5229535016
H        7.6522381988   -3.1850191912    8.9143462285
H        4.4047950674   -5.2640696203    2.3855370106
30   

C        7.4350055742   -5.3207886432    4.2675276226
C        8.6871883721   -8.9490727544    2.2401993573
C        8.8647509160   -9.0629052626    0.8679965834
C        7.7639194698   -8.0356475952    2.7498844897
C        6.2048816292   -6.2985976394    7.0879240021
C        8.1123189903   -8.2634000916    0.0118164476
C        7.0994285829   -6.4517615339    8.1507270517
C        7.1755549470   -4.0639194079    8.4234196031
C        6.9783415674   -7.2090709490    1.9090532164
C        5.7863037243   -5.0217213543    6.6803324816
C        7.5935292242   -5.3347662955    8.8276717719
C        7.1697989088   -7.3440466661    0.4959926226
C        6.2746915703   -3.8914591510    7.3653517279
C        6.1716082716   -5.8533577842    3.8700775049
C        5.9902594090   -6.2756751409    2.5350625248
N        8.4778180279   -4.9096762137    4.5860948015
N        4.8652139158   -4.8654760186    5.6516215475
N        4.9818694508   -5.4134285108    4.4877761417
O        5.0591349430   -5.7133615482    1.7798840878
Cl       8.7072953752   -5.5215496078   10.1587530414
Cl       6.3454080303   -6.3757199149   -0.7170460985
Cl       5.7896213281   -2.2711581178    6.9043435540
H        9.2631401991   -9.5720808145    2.9155851510
H        9.5853511566   -9.7665703046    0.4655971663
H        7.6483875301   -8.0030527213    3.8268298119
H        5.8191275136   -7.1738303598    6.5782155091
H        8.2625101261   -8.3438528459   -1.0586357544
H        7.4115957981   -7.4427212267    8.4585754773
H        7.5564423199   -3.1907941889    8.9391551331
H        4.5346751877   -5.0950730150    2.3207855822
30   

C        7.4209746260   -5.1898542775    4.2369442718
C        8.6290161181   -8.9838985097    2.2584054659
C        8.8002247286   -9.1289855887    0.8884895285
C        7.7345563807   -8.0338123719    2.7520393508
C        6.3178558539   -6.3638853595    7.0831405969
C        8.0686827844   -8.3252920886    0.0183323634
C        7.2345184713   -6.4781357411    8.1316587486
C        7.1673348676   -4.0945826264    8.4426168056
C        6.9727377746   -7.1993483845    1.8968514710
C        5.8138504651   -5.1097815854    6.7041927746
C        7.6677482982   -5.3435179793    8.8209068973
C        7.1546373430   -7.3690501333    0.4856101043
C        6.2421971502   -3.9618167872    7.3998655171
C        6.2083674831   -5.8515453847    3.8791496148
C        6.0295282900   -6.2153145929    2.5129355336
N        8.4226268266   -4.6679422893    4.5233239568
N        4.8648730915   -4.9981272833    5.6958289940
N        4.9996291883   -5.5174649600    4.5214608561
O        5.2064935763   -5.5226940108    1.7432073273
Cl       8.8073428159   -5.4824435135   10.1357999718
Cl       6.3406063193   -6.4188685392   -0.7486287637
Cl       5.6516044866   -2.3678026410    6.9715261150
H        9.1894238709   -9.6093521605    2.9445402221
H        9.4992391519   -9.8608456821    0.4984713379
H        7.6301677758   -7.9726863800    3.8288697815
H        5.9781391939   -7.2529490448    6.5646836506
H        8.2115261171   -8.4335149611   -1.0506986306
H        7.6102285295   -7.4528331972    8.4196942367
H        7.5011218111   -3.2077093413    8.9674782591
H        4.7089515244   -4.8868134685    2.2887507750
30   

C        7.4067228046   -5.0467413213    4.2213712224
C        8.5355983067   -9.0602962336    2.2686356803
C        8.6980485776   -9.2342184082    0.9010141665
C        7.6900478172   -8.0595659519    2.7483309190
C        6.4440657497   -6.4128470955    7.0831434600
C        8.0044385403   -8.4101560122    0.0189423946
C        7.3766306214   -6.4642988412    8.1223241811
C        7.1355771679   -4.0938563109    8.4482601349
C        6.9719601095   -7.1995242920    1.8806111025
C        5.8428594534   -5.1985946725    6.7186560869
C        7.7306110025   -5.3043463446    8.8147032352
C        7.1398890732   -7.4023213245    0.4717513033
C        6.1921791304   -4.0250078887    7.4156923295
C        6.2692662889   -5.8362606944    3.8795692098
C        6.0992000884   -6.1464907901    2.4838271896
N        8.3455308769   -4.4124189941    4.4931032273
N        4.8735178653   -5.1575380671    5.7253194940
N        5.0425310348   -5.6419834555    4.5410079948
O        5.4018599143   -5.3397827690    1.7026473708
Cl       8.8886094122   -5.3657481660   10.1193109974
Cl       6.3555973942   -6.4472486493   -0.7779673144
Cl       5.4802561108   -2.4774530631    7.0019057139
H        9.0670086571   -9.7009356683    2.9637842033
H        9.3603101680  -10.0049402342    0.5218487199
H        7.5972552096   -7.9733099059    3.8244429672
H        6.1648772561   -7.3215564915    6.5626455141
H        8.1373695288   -8.5442773538   -1.0484555474
H        7.8256296698   -7.4101538411    8.4013591155
H        7.4080373455   -3.1873608688    8.9750200455
H        4.9440260599   -4.6726298469    2.2451545999
30   

C        5.9372704288   -7.1171198855    5.0130479338
C        9.3805164644   -7.2085047937    1.5824117144
C        9.2239417294   -7.8095453153    0.3407906243
C        8.2601946949   -6.7861471558    2.2983169783
C        5.6772869083   -4.9902901303    7.6843641534
C        7.9446277894   -7.9747945150   -0.1833913017
C        6.3090857402   -5.4362463113    8.8473766754
C        8.4446178470   -5.1674685360    7.7764738806
C        6.9440608979   -6.9461644682    1.8006296426
C        6.4207213357   -4.6402259572    6.5487489856
C        7.7003592206   -5.5275306142    8.9038611107
C        6.8006114838   -7.5526792853    0.5103812952
C        7.8292874533   -4.7221024920    6.5993611071
C        6.0752307887   -6.0981059409    4.0302329080
C        5.8021410072   -6.4972657289    2.6513144460
N        5.8116537013   -7.9593610479    5.8083464473
N        5.7468575960   -4.1611861465    5.4343688614
N        5.7291173058   -4.7616362255    4.2915595475
O        4.5589541808   -6.6823349599    2.2491925103
Cl       8.4976504981   -6.0678208384   10.3595872307
Cl       5.2649314606   -7.8374978334   -0.2956119670
Cl       8.8316975616   -4.2365580743    5.2452992209
H       10.3724695985   -7.0700027144    1.9982775251
H       10.0905645764   -8.1476718434   -0.2167817530
H        8.4423715196   -6.3262724954    3.2616080842
H        4.5955001193   -4.9205090987    7.6539178735
H        7.8245823964   -8.4456318603   -1.1523233484
H        5.7180615712   -5.7119544037    9.7133608484
H        9.5250962493   -5.2237039845    7.8179517182
H        3.9394260477   -6.3751476318    2.9342677100
30   

C        6.0588896918   -7.0799740361    4.8954892470
C        9.3829365288   -7.4096969853    1.7013020550
C        9.2186372576   -8.0505679764    0.4809382046
C        8.2789568689   -6.8619016444    2.3547079977
C        5.6594036700   -5.1197285692    7.7234476873
C        7.9486933729   -8.1320281254   -0.0840549370
C        6.3921177992   -5.5425495681    8.8344459219
C        8.4314047745   -5.0328426776    7.6683243105
C        6.9721037113   -6.9272858697    1.8109683015
C        6.3026636606   -4.6609443873    6.5656527006
C        7.7865346118   -5.5017089068    8.8168132245
C        6.8218956443   -7.5811898258    0.5447777177
C        7.7145514040   -4.6085444212    6.5414810362
C        6.0720869798   -5.9986020590    3.9689482899
C        5.8487993106   -6.3170070767    2.5849664348
N        6.0483534973   -7.9712998262    5.6459931665
N        5.5191103426   -4.2204996401    5.5070214451
N        5.5363083416   -4.7488276841    4.3286775447
O        4.6222717858   -6.3242527587    2.0889644088
Cl       8.7084034950   -6.0146508850   10.2074893074
Cl       5.2942869683   -7.7888581677   -0.2990595544
Cl       8.5957741284   -3.9868833623    5.1582367474
H       10.3685093183   -7.3344090429    2.1474280831
H       10.0720175369   -8.4849164180   -0.0283229469
H        8.4676228815   -6.3672205908    3.3000581579
H        4.5758077087   -5.1553240030    7.7503409941
H        7.8220873227   -8.6386764152   -1.0338661051
H        5.8770697603   -5.9042705277    9.7171727035
H        9.5130755735   -4.9872454160    7.6534249168
H        4.0078346340   -5.9245923477    2.7299546283
30   

C        6.2060101107   -7.0313569893    4.8434914631
C        9.3566964849   -7.5063954390    1.7311838933
C        9.1690132222   -8.1711740306    0.5270334578
C        8.2749623789   -6.8953380639    2.3653288306
C        5.6219677662   -5.1758087555    7.7469001510
C        7.8980456412   -8.2149199317   -0.0400689145
C        6.4065143678   -5.5663986777    8.8339478707
C        8.3804351331   -4.9110632814    7.6292051972
C        6.9683577471   -6.9183366203    1.8172436263
C        6.2057766936   -4.6610799567    6.5811740602
C        7.7945948319   -5.4371871573    8.7844754973
C        6.7938955515   -7.6004187781    0.5697252804
C        7.6113200255   -4.5165714828    6.5259056606
C        6.0559800861   -5.9385720667    3.9407602165
C        5.8717650633   -6.2238300139    2.5594249026
N        6.3375466488   -7.9309746216    5.5724373478
N        5.3658656990   -4.2669128764    5.5466707263
N        5.4045738255   -4.7599632792    4.3529596547
O        4.6772973089   -6.0935130708    2.0034830718
Cl       8.7803894608   -5.9130056618   10.1442487813
Cl       5.2568467362   -7.7803065006   -0.2629679434
Cl       8.4203471097   -3.8226829505    5.1325854669
H       10.3435808266   -7.4593707918    2.1782726077
H       10.0049639459   -8.6536027225    0.0323558737
H        8.4813646202   -6.3765702619    3.2942962427
H        4.5439034629   -5.2821462249    7.7982115890
H        7.7523209354   -8.7429279400   -0.9753642033
H        5.9368853052   -5.9731178075    9.7224010816
H        9.4565445490   -4.7979465432    7.5899369078
H        4.0775285178   -5.6446238424    2.6259740168
30   

C        6.3706007104   -6.9658032570    4.8205047074
C        9.3530070798   -7.5487155202    1.7229855867
C        9.1329183230   -8.2501049412    0.5451355500
C        8.2927463658   -6.8988194286    2.3549718920
C        5.5544304287   -5.2181276767    7.7690163819
C        7.8509591100   -8.2929424401    0.0029762930
C        6.3618106328   -5.5744007117    8.8510826137
C        8.2931024587   -4.7957948739    7.6508807723
C        6.9767300449   -6.9184974895    1.8305106705
C        6.1053447643   -4.6598871803    6.6073922491
C        7.7403088731   -5.3673362643    8.8008523075
C        6.7685073780   -7.6402711789    0.6117857357
C        7.5006392864   -4.4326242577    6.5530599364
C        6.0492721750   -5.8971223467    3.9316857094
C        5.9034578389   -6.1698924152    2.5549107317
N        6.6468103677   -7.8440820473    5.5350292388
N        5.2400555494   -4.3116294187    5.5766560306
N        5.3078541635   -4.7824895022    4.3746139826
O        4.7534202035   -5.9223863732    1.9451245803
Cl       8.7542069345   -5.8041953297   10.1531117344
Cl       5.2077909625   -7.8379116890   -0.1712045178
Cl       8.2675206164   -3.6803563138    5.1660951439
H       10.3487913197   -7.5014018652    2.1498160188
H        9.9520698510   -8.7620721775    0.0520610593
H        8.5231676227   -6.3446685390    3.2576593762
H        4.4843141410   -5.3863431355    7.8206176909
H        7.6788659744   -8.8519377189   -0.9095329595
H        5.9176652538   -6.0161418797    9.7358932743
H        9.3613268235   -4.6234540735    7.6110234716
H        4.1636284828   -5.4417407748    2.5536961194
30   

C        6.5039044237   -6.9209392499    4.8000522386
C        9.3569572331   -7.5974733738    1.6976435812
C        9.1058094862   -8.3127426916    0.5341278769
C        8.3185919274   -6.9184140775    2.3355871110
C        5.5015001099   -5.2965877722    7.7812073305
C        7.8146644047   -8.3411151009    0.0128290476
C        6.3310615593   -5.6149591623    8.8582847605
C        8.2086805637   -4.7042546787    7.6660035415
C        6.9947559076   -6.9230042066    1.8315776618
C        6.0147205883   -4.6922650847    6.6255341714
C        7.6942334570   -5.3235530630    8.8090403383
C        6.7546351522   -7.6595521404    0.6290748725
C        7.3931775717   -4.3763083656    6.5737587300
C        6.0368460989   -5.8959649625    3.9230356869
C        5.9411662511   -6.1374189606    2.5459636769
N        6.9006395588   -7.7621617636    5.5025321948
N        5.1272274592   -4.3915230798    5.5983525431
N        5.2213922647   -4.8423692846    4.3898641002
O        4.8602673212   -5.7600487129    1.8765186714
Cl       8.7357123733   -5.7162548621   10.1539372960
Cl       5.1720552380   -7.8512799571   -0.1101016669
Cl       8.1100909407   -3.5621538707    5.1949968139
H       10.3602866099   -7.5602892233    2.1074598480
H        9.9079055713   -8.8467475233    0.0364259645
H        8.5732016610   -6.3474317841    3.2211147013
H        4.4439412679   -5.5312895408    7.8315819849
H        7.6171936114   -8.9124852007   -0.8867589786
H        5.9164401000   -6.0937198959    9.7381251216
H        9.2645409150   -4.4674698937    7.6268107722
H        4.2728106861   -5.2608940042    2.4726742992
30   

C        6.6417824224   -6.8402206224    4.8031461460
C        9.3697940726   -7.6075681712    1.6748156388
C        9.0808935688   -8.3342625975    0.5268690476
C        8.3573083426   -6.9022556477    2.3260568601
C        5.4532729802   -5.3685469390    7.8155966710
C        7.7781331119   -8.3471986507    0.0340160438
C        6.2991390589   -5.6482492447    8.8906876838
C        8.1154647090   -4.5956591377    7.7204447246
C        7.0227585327   -6.8936167968    1.8518107107
C        5.9282226779   -4.7134303223    6.6715414823
C        7.6403215759   -5.2671280101    8.8510171728
C        6.7446613101   -7.6393925855    0.6652975146
C        7.2823972992   -4.3035480199    6.6310825808
C        6.0321899392   -5.8753067708    3.9442173457
C        5.9876343418   -6.0835288238    2.5655867613
N        7.1532430396   -7.6308520506    5.4903457674
N        5.0253586124   -4.4585678927    5.6453106964
N        5.1475031878   -4.8872219562    4.4309913702
O        4.9867036294   -5.5830024667    1.8513186224
Cl       8.7023059896   -5.6142945547   10.1924523848
Cl       5.1373476012   -7.8162224895   -0.0218722707
Cl       7.9467684645   -3.4213155051    5.2679663435
H       10.3826113198   -7.5808602372    2.0614801978
H        9.8628131471   -8.8886428709    0.0194450012
H        8.6417683881   -6.3181027404    3.1936074684
H        4.4133899444   -5.6732206828    7.8580986068
H        7.5503529453   -8.9275805124   -0.8525071385
H        5.9146598614   -6.1672514080    9.7613114645
H        9.1538289371   -4.2902312474    7.6885223274
H        4.3989817098   -5.0740799696    2.4391815348
30   

C        6.7487598552   -6.7880782302    4.8092849220
C        9.3613075701   -7.6534862896    1.6363793961
C        9.0334682618   -8.3863057714    0.5023759610
C        8.3758862854   -6.9264003468    2.3054833778
C        5.4089774714   -5.4670295458    7.8369797664
C        7.7191740197   -8.3825710662    0.0403402064
C        6.2771674132   -5.6916688354    8.9071861304
C        8.0038274635   -4.4908643864    7.7438452573
C        7.0307608681   -6.9039357026    1.8634361700
C        5.8287294134   -4.7665195331    6.6984893334
C        7.5853810499   -5.2092447009    8.8680197815
C        6.7137725021   -7.6525450786    0.6908497726
C        7.1467224724   -4.2514070860    6.6601005031
C        6.0056774042   -5.9100666458    3.9611116813
C        6.0118548789   -6.0782403188    2.5810984261
N        7.3656412870   -7.5077077559    5.4882306782
N        4.9069354634   -4.5748922424    5.6752624139
N        5.0534203192   -4.9918111292    4.4591294935
O        5.1015829660   -5.4622295959    1.8342575484
Cl       8.6758336137   -5.4905095671   10.2020924387
Cl       5.0831616758   -7.8056730564    0.0555501613
Cl       7.7363718579   -3.3077682342    5.3037878625
H       10.3836689172   -7.6381220119    1.9977279505
H        9.7943262779   -8.9575488092   -0.0181830578
H        8.6915853938   -6.3345724503    3.1566411767
H        4.3956141687   -5.8507936163    7.8784785045
H        7.4602609479   -8.9669096136   -0.8349394979
H        5.9362780913   -6.2472972632    9.7733117882
H        9.0161792797   -4.1078366614    7.7120660899
H        4.5094092875   -4.9487446235    2.4138062411
30   

C        6.8955024577   -6.6818074657    4.7914499320
C        9.3676261644   -7.6926592468    1.5551087446
C        8.9867824574   -8.4411913963    0.4476146014
C        8.4196786813   -6.9344766369    2.2442516628
C        5.3691684606   -5.5905235819    7.8153460684
C        7.6575127744   -8.4203915157    0.0303361396
C        6.2384787947   -5.7800350069    8.8915191207
C        7.8759544134   -4.4015582010    7.7977037150
C        7.0609105950   -6.8981964739    1.8485107625
C        5.7455603472   -4.8189597966    6.7083672327
C        7.5031630203   -5.1911891031    8.8898214982
C        6.6907825154   -7.6584326227    0.7018909707
C        7.0160110585   -4.1953782370    6.7092890098
C        6.0229157525   -5.9186130978    3.9547775861
C        6.0666587510   -6.0516126296    2.5735291312
N        7.6137547872   -7.3101594519    5.4616421751
N        4.8287082051   -4.6680249220    5.6746075338
N        5.0114880521   -5.0675190926    4.4570379854
O        5.2483088676   -5.3344237512    1.8103714617
Cl       8.5958222648   -5.4307605990   10.2302566093
Cl       5.0332442211   -7.7813036782    0.1344804809
Cl       7.5428944995   -3.1649783461    5.3910463375
H       10.4023396433   -7.6888923470    1.8797373204
H        9.7184168049   -9.0367460277   -0.0873911542
H        8.7767323679   -6.3297686037    3.0693287380
H        4.3903555663   -6.0569747500    7.8267966810
H        7.3567032327   -9.0152119632   -0.8242228142
H        5.9330524027   -6.3916045318    9.7327701273
H        8.8544082966   -3.9376078413    7.7942231295
H        4.6560259264   -4.8127201381    2.3824981324
