28

C      2.26282   -1.57357    1.44333
C      0.44281    2.23302    2.48593
C      0.54091    1.50169    1.28483
C      3.01574   -2.11265    2.48476
C     -1.04748   -0.17930    2.10626
C      1.36668   -3.88626    2.74279
C      1.07009   -2.17681    1.02206
C     -0.38667    1.72490    3.46737
C     -1.11367    0.54858    3.27906
C     -0.18243    0.32550    1.11697
C      0.65180   -3.32891    1.68872
C      2.55555   -3.26543    3.12761
C      0.30677   -1.65404   -0.15876
C     -1.59020    1.34037    5.32989
O      0.07209   -2.30635   -1.14541
O     -0.65184    2.24112    4.71679
O     -1.86439    0.27747    4.39665
O     -0.07893   -0.33501   -0.11176
F     -0.51570   -3.90701    1.33539
Cl     3.48109   -3.94525    4.44812
H      2.61019   -0.67435    0.94513
H      0.99624    3.15438    2.63422
H      1.17690    1.84917    0.47710
H      3.94318   -1.64556    2.79788
H     -1.63055   -1.08087    1.95201
H      0.99498   -4.77426    3.24221
H     -1.14751    0.91684    6.23747
H     -2.51975    1.87657    5.54771
