25

C     -0.33620   -1.68941   -3.87660
C     -0.41548   -1.72438   -6.31274
C     -1.06818   -0.49656   -3.85392
C     -1.14498   -0.54160   -6.27073
C     -1.48679    0.06648   -5.06536
C     -0.02672   -2.28592   -5.09596
C      2.23295    2.35789   -3.37986
C      1.70820    3.50795   -2.51781
C      0.45436    1.57935   -2.21821
C     -1.04992    1.40084   -2.36599
O      1.08720    1.50616   -3.48240
O      0.71893    2.87811   -1.68548
O     -1.40565    0.03171   -2.63605
F     -1.55173    0.03486   -7.42055
F     -2.22361    1.19739   -5.08482
Br     0.97600   -3.91801   -5.10846
H     -0.01991   -2.12126   -2.93403
H     -0.17376   -2.17644   -7.26778
H      2.52877    2.65275   -4.38788
H      3.06182    1.82836   -2.89042
H      2.47521    3.95669   -1.88056
H      1.23228    4.28681   -3.12447
H      0.87383    0.81999   -1.53884
H     -1.42597    2.07852   -3.13473
H     -1.52586    1.63242   -1.41216
