18

C      0.98755    1.57080    1.42134
C      4.60517   -3.10239    0.70097
C      4.15965   -3.73389    1.83097
C      3.74731   -2.02387    0.31654
C      2.66429   -1.83970    1.14364
C      2.08223    0.59599    1.35125
C      1.53747   -0.83636    1.11170
N      0.08469    2.30297    1.46941
N      0.84928   -0.87992   -0.18178
S      2.69978   -3.02079    2.42591
Br     4.15072   -0.96654   -1.21683
H      5.50077   -3.37991    0.15707
H      4.60588   -4.57539    2.34520
H      2.75138    0.87370    0.53348
H      2.64656    0.62866    2.28758
H      0.87108   -1.06574    1.95899
H      0.02176   -0.28488   -0.15464
H      0.53822   -1.82980   -0.37351
