29

C      0.12482    1.94448    1.29692
C     -2.55029    2.58436    1.71621
C     -0.86014    1.02273    0.91153
C     -0.20357    3.16307    1.89516
C     -1.56310    3.48778    2.10411
C     -2.19467    1.36698    1.13253
C     -0.50640   -0.38142   -1.29140
C      0.87047   -1.07917   -1.18525
C     -0.45485   -0.27669    0.26195
C      2.09304    3.77539    2.14381
C     -1.70430    5.85433    1.98975
N      1.00873   -0.54477    0.20086
O      0.71283    4.08887    2.31380
O     -1.94388    4.64968    2.73367
Br    -3.61276    0.16803    0.60848
H      1.15287    1.65722    1.11082
H     -3.58854    2.84798    1.88749
H     -0.45223    0.60006   -1.76707
H     -1.33447   -0.95140   -1.71394
H      0.78572   -2.17326   -1.23322
H      1.66012   -0.75162   -1.86922
H     -1.02159   -1.10135    0.71402
H      2.64255    4.62575    2.54977
H      2.34678    3.64732    1.08463
H      2.36501    2.86766    2.69534
H     -2.09226    6.66945    2.60378
H     -2.24338    5.82709    1.03433
H     -0.63600    6.00346    1.80968
H      1.33693   -1.21889    0.88990
