20

C      1.79529   -0.96459   -0.17821
C      0.67035   -0.79196    0.62953
C      3.14825   -1.38709    1.80171
C      0.18130   -3.10508    6.59622
C     -0.29982   -3.95801    5.62865
C      2.01526   -1.24795    2.61889
C      3.01609   -1.25796    0.42725
C      0.79647   -0.93761    2.00749
C      1.23777   -2.23055    4.86585
C      2.19580   -1.37533    4.10706
N      1.05190   -2.14676    6.15972
O      3.14474   -0.84631    4.66346
F      4.11046   -1.41673   -0.35644
F     -0.30112   -0.72564    2.77503
S      0.34699   -3.53550    4.09165
H      1.73686   -0.86494   -1.25742
H     -0.29628   -0.53716    0.20691
H      4.11587   -1.59515    2.24679
H     -0.08058   -3.15140    7.64790
H     -0.97869   -4.79291    5.74656
