21

C      1.79853   -1.23944    0.15533
C      0.71591   -0.58703    0.73653
C      1.73388   -0.90025    2.92509
C      2.88031   -1.72030    0.91555
C      2.80376   -1.53577    2.30108
C      0.69722   -0.42293    2.12540
C      3.99713   -2.40512    0.17565
C      6.53277   -2.54800   -0.20646
C      6.14731   -3.75523    0.58209
C      5.36014   -2.45268    0.76673
O      3.76569   -2.88623   -0.93218
F      3.78009   -2.01344    3.11352
Br    -0.78051    0.46345    2.95224
H      1.83471   -1.39522   -0.91825
H     -0.10047   -0.21455    0.12733
H      1.72441   -0.79838    4.00459
H      7.43118   -2.00591    0.07202
H      6.27195   -2.53363   -1.25935
H      5.62324   -4.54858    0.05920
H      6.76901   -4.06538    1.41603
H      5.52527   -1.91326    1.68916
