32

C      7.94536   -2.23687    2.40588
C      0.53423   -0.37505    1.55286
C      0.57741   -0.67584    0.18814
C      1.62250   -0.70249    2.35667
C      1.70292   -1.30250   -0.34986
C      8.84935   -2.73710    7.09714
C      8.49482   -2.79963    8.41220
C      6.53787   -2.44283    6.91923
C      2.76076   -1.32967    1.81574
C      7.72798   -2.52843    6.20544
C      2.81376   -1.64419    0.43685
C      3.86576   -1.64098    2.73849
C      5.79971   -2.01383    3.50000
C      7.98527   -2.44578    4.78316
C      7.23029   -2.23919    3.65748
C      3.98657   -2.33727   -0.21838
N      8.55868   -2.24583    1.41539
N      5.18737   -1.79028    2.36593
N      3.66457   -1.77431    4.03974
O      4.95613   -2.01650    4.55286
S      6.77962   -2.60898    8.60896
H     -0.33466    0.11418    1.98427
H     -0.26145   -0.42429   -0.45586
H      1.60853   -0.46758    3.41633
H      1.72422   -1.53895   -1.41084
H      9.87371   -2.83278    6.75105
H      9.13166   -2.94554    9.27496
H      5.54169   -2.29474    6.53678
H      9.04045   -2.57718    4.55459
H      4.87399   -1.70004   -0.23234
H      4.27204   -3.24720    0.31652
H      3.73430   -2.60820   -1.24688
