22

C      1.52845   -1.55529   -0.19211
C      0.51557   -1.18149    0.69214
C      2.09602   -1.32745    2.53640
C      2.82346   -1.81745    0.26457
C      0.81212   -1.07308    2.05215
C      3.09676   -1.69992    1.63665
C      5.02776   -3.73445   -1.91458
C      4.01088   -3.55887   -0.82279
N      5.91891   -4.64882   -1.72837
N      4.85780   -2.98043   -3.05712
O      6.75190   -4.74157   -2.88553
O      3.81436   -2.13782   -0.63345
Cl    -0.44686   -0.60414    3.17954
Cl     4.71022   -2.01126    2.23042
H      1.32849   -1.64083   -1.25647
H     -0.48684   -0.97477    0.33223
H      2.31902   -1.23526    3.59367
H      4.37190   -4.03194    0.09296
H      3.05514   -4.00995   -1.11915
H      5.66365   -2.97887   -3.67291
H      4.45790   -2.06449   -2.88673
H      7.40392   -5.40659   -2.61545
