30   

C       -1.4876419997    0.9603585428    0.9022563327
C       -1.2350919765   -0.2569820596    1.5374916370
C       -0.5064958329    1.5344814213    0.0922273890
C        5.5525413261    1.2276630673   -1.2586262862
C       -0.0016993567   -0.8969106170    1.3688503563
C        0.7265868295    0.8954781713   -0.0771585022
C        5.1994233697    0.0131605990   -1.8383346920
C        4.8890640295    1.6550601993   -0.1134889829
C        1.0067420072   -0.3261700446    0.5726806518
C        3.4642495892   -0.3164043582   -0.1651246874
C        4.1826415543   -0.7776762018   -1.2965067841
C        3.8569593303    0.8966051279    0.4425551623
C        2.2913810884   -1.0575555883    0.3842140039
C        3.8247661385   -3.1602545531   -1.1525629825
C        3.5569251630   -3.1164406289    0.3541911705
N        2.3367308918   -2.3423941564    0.6693673679
N        3.9379187389   -2.0119620673   -1.8998026951
O        3.9818173614   -4.2200813303   -1.7383438787
F        3.2543049524    1.3452761319    1.5684117135
H       -2.4440691377    1.4541322257    1.0325948647
H       -1.9967963925   -0.7108822934    2.1612272934
H       -0.7024952337    2.4740390971   -0.4118046649
H        6.3483816851    1.8277356039   -1.6875914068
H        0.1603326103   -1.8443312168    1.8720877948
H        1.4578515520    1.3560582357   -0.7313017621
H        5.7386146729   -0.3275453413   -2.7147895493
H        5.1691556192    2.5886539375    0.3599185920
H        3.4336441323   -4.1436455746    0.7084094964
H        4.4256529292   -2.6925644162    0.8657674287
H        4.2579003579   -2.1958083699   -2.8419504170
30   

C       -1.4519788191    1.0108818121    0.9326482532
C       -1.1321308821   -0.1106733929    1.7017245497
C       -0.5655637198    1.4515425483   -0.0527257305
C        5.5526668931    1.2419353875   -1.1670619474
C        0.0729570879   -0.7897681393    1.4875012855
C        0.6389673688    0.7725371198   -0.2665544657
C        5.2411686002    0.0322157015   -1.7791302487
C        4.8291303160    1.6473389293   -0.0511050154
C        0.9777853201   -0.3570938044    0.5053286860
C        3.4370081711   -0.3438618499   -0.1901524682
C        4.2092910142   -0.7778607652   -1.2973573063
C        3.7813894772    0.8699683290    0.4462425657
C        2.2481215831   -1.1034158293    0.2910800637
C        3.8335540262   -3.1666128981   -1.2436199838
C        3.4942939615   -3.1710779940    0.2484245796
N        2.2692125608   -2.3955498849    0.5387581048
N        3.9972010356   -1.9960982484   -1.9448508570
O        4.0085188627   -4.2077434157   -1.8571238952
F        3.1212359737    1.3016917401    1.5461738657
H       -2.3862773876    1.5354415407    1.0983483955
H       -1.8186663230   -0.4581668903    2.4653568670
H       -0.8122393111    2.3187298877   -0.6546752111
H        6.3603665345    1.8570861663   -1.5500039751
H        0.3010049611   -1.6600155017    2.0940519765
H        1.3088669543    1.1248971607   -1.0431433205
H        5.8228751627   -0.2878861139   -2.6359385209
H        5.0732804865    2.5790201162    0.4453845525
H        3.3457730481   -4.2085958603    0.5604262973
H        4.3426249378   -2.7749783156    0.8136484728
H        4.3612111979   -2.1529373049   -2.8758565141
30   

C       -1.4139010150    1.0445370724    0.9409138911
C       -1.0018370279    0.0399035298    1.8208560377
C       -0.6449452116    1.3362463059   -0.1888013157
C        5.5644867400    1.2509469178   -1.0675459145
C        0.1766908086   -0.6726767159    1.5705439685
C        0.5328988876    0.6229564933   -0.4373813466
C        5.2878200017    0.0522038981   -1.7162486198
C        4.7896122742    1.6302959961    0.0223987729
C        0.9550072189   -0.3946449240    0.4381513116
C        3.4220056168   -0.3697718904   -0.2112912901
C        4.2417412054   -0.7739068826   -1.2961201900
C        3.7272147754    0.8368300311    0.4595240054
C        2.2192823203   -1.1462883211    0.2003763477
C        3.8551176690   -3.1648332543   -1.3360906594
C        3.4529805503   -3.2187763073    0.1386755492
N        2.2231224986   -2.4442165315    0.4098892156
N        4.0595613443   -1.9727467683   -1.9879973581
O        4.0481448091   -4.1853357485   -1.9781127623
F        3.0187061841    1.2470825428    1.5372974496
H       -2.3271514460    1.5958751793    1.1346026018
H       -1.5949773464   -0.1890133867    2.6988955358
H       -0.9606959791    2.1155472993   -0.8730465414
H        6.3831923276    1.8789812783   -1.4032472624
H        0.4870249309   -1.4498132666    2.2610906624
H        1.1222638018    0.8592772840   -1.3166954957
H        5.9066584044   -0.2453893932   -2.5549480329
H        5.0039770862    2.5546583430    0.5455712647
H        3.2849073034   -4.2655052125    0.4069741498
H        4.2803064485   -2.8505184383    0.7518016757
H        4.4632411734   -2.1011447863   -2.9069470507
30   

C       -1.3816654338    1.0662070619    0.9275177051
C       -0.8545044953    0.2194662924    1.9068703799
C       -0.7452895918    1.1748618343   -0.3120528290
C        5.5857447700    1.2546592554   -0.9513906754
C        0.3055413916   -0.5188820414    1.6451010390
C        0.4141099426    0.4352319104   -0.5705910195
C        5.3283491893    0.0752924991   -1.6415063126
C        4.7795551406    1.6028759011    0.1257588461
C        0.9461565219   -0.4278208822    0.4029578978
C        3.4219240389   -0.3918800853   -0.2007514707
C        4.2714194514   -0.7625575379   -1.2752636342
C        3.7060133172    0.7973475489    0.5106529810
C        2.2093964419   -1.1829946519    0.1494472314
C        3.8756406966   -3.1507515325   -1.4141163499
C        3.4302673479   -3.2589540315    0.0448330754
N        2.1986257250   -2.4863661404    0.3126045207
N        4.1067945938   -1.9363219036   -2.0134989974
O        4.0802695501   -4.1469749000   -2.0897563626
F        2.9698856456    1.1803315224    1.5795268351
H       -2.2801616391    1.6383199318    1.1297497382
H       -1.3429847726    0.1345574775    2.8708793185
H       -1.1484903768    1.8335098126   -1.0728617475
H        6.4126773681    1.8924294790   -1.2460154684
H        0.7113135395   -1.1713950182    2.4108050997
H        0.9064277509    0.5303995096   -1.5323405716
H        5.9699979005   -0.1970473258   -2.4715869690
H        4.9774382695    2.5127681089    0.6798386148
H        3.2476423598   -4.3140632452    0.2668674848
H        4.2421692169   -2.9215360318    0.6951600240
H        4.5365216143   -2.0330108832   -2.9245010244
30   

C       -1.3968639979    1.0792238545    0.8878756668
C       -0.7330963749    0.4639758160    1.9528182634
C       -0.8954041404    0.9483796399   -0.4097717535
C        5.6273271805    1.2256245728   -0.8259903877
C        0.4282221942   -0.2815938622    1.7183203077
C        0.2658260885    0.2018992890   -0.6388008313
C        5.3433378759    0.0846942106   -1.5674508686
C        4.8319739055    1.5403832249    0.2688415061
C        0.9367403781   -0.4283160278    0.4227237435
C        3.4308166150   -0.4093865093   -0.1413538925
C        4.2703912881   -0.7469452882   -1.2353709378
C        3.7427764451    0.7408765435    0.6212495825
C        2.2006859716   -1.1926485338    0.1667090963
C        3.8292121751   -3.1180522685   -1.4855809710
C        3.3767068092   -3.2859068576   -0.0346026597
N        2.1594211662   -2.5013585882    0.2616550144
N        4.0803890084   -1.8809957794   -2.0278526716
O        4.0166353634   -4.0848790540   -2.2073436421
F        3.0225659614    1.0927921948    1.7100949156
H       -2.2968405222    1.6563847599    1.0679901982
H       -1.1168457361    0.5638625111    2.9617203538
H       -1.4050966916    1.4253217155   -1.2392246709
H        6.4659229419    1.8594488867   -1.0950184710
H        0.9390386691   -0.7551072060    2.5497115570
H        0.6519273391    0.1081235889   -1.6480259846
H        5.9761825228   -0.1621617749   -2.4121164995
H        5.0504804802    2.4200357776    0.8625685070
H        3.1714434856   -4.3462460340    0.1370266698
H        4.1921925907   -2.9953065595    0.6335621182
H        4.5078896604   -1.9427247106   -2.9429380012
30   

C       -1.2748169068    0.7197708904    0.6763784215
C       -0.4806689429    0.4407986525    1.7910220861
C       -0.8365579869    0.3440471617   -0.5949835551
C        5.8629737376    1.3331855748   -0.7002780331
C        0.7486887373   -0.2099599020    1.6321441983
C        0.3934049678   -0.3053831085   -0.7464482700
C        5.5995949714    0.2438155896   -1.5209667418
C        5.0834348186    1.5339581544    0.4312061792
C        1.2052906993   -0.5911517019    0.3652192855
C        3.7296417080   -0.4215961943   -0.1028574088
C        4.5610726349   -0.6458076233   -1.2333374754
C        4.0273973048    0.6746126577    0.7419326520
C        2.5272318271   -1.2719643713    0.1447278193
C        4.2258667744   -3.0090043966   -1.6410098370
C        3.7895721045   -3.2941654736   -0.2033084096
N        2.5379559942   -2.5846423768    0.1350510200
N        4.3997350946   -1.7266850286   -2.1028444998
O        4.4564310344   -3.9149630997   -2.4264641712
F        3.3332412523    0.9189814579    1.8734811443
H       -2.2283357453    1.2213454272    0.7978403332
H       -0.8184780898    0.7235942538    2.7815107008
H       -1.4491180947    0.5532156306   -1.4646465908
H        6.6747141574    2.0136814883   -0.9355436546
H        1.3423163786   -0.4373034374    2.5104375220
H        0.7252582492   -0.5952078647   -1.7376888334
H        6.2224607416    0.0827954298   -2.3933185041
H        5.2890732655    2.3706601293    1.0882449630
H        3.6318335086   -4.3715491420   -0.1020537297
H        4.5923379076   -3.0101476167    0.4828381320
H        4.8166950590   -1.7056558788   -3.0246032761
30   

C       -1.3014456813    0.7028462242    0.5594125416
C       -0.4287913186    0.7278314431    1.6481798379
C       -0.9293432973    0.0295363062   -0.6037891428
C        5.9235881057    1.3008892207   -0.5823780027
C        0.8148485308    0.0883425282    1.5708807315
C        0.3145890015   -0.6056502016   -0.6746128489
C        5.5612756937    0.3054815276   -1.4802965586
C        5.2440268963    1.4041241397    0.6240756683
C        1.2153879045   -0.5823349093    0.4074991836
C        3.7654880521   -0.4308156642    0.0001048458
C        4.5140390100   -0.5754253785   -1.1990962377
C        4.1825759019    0.5495334622    0.9312609337
C        2.5418808964   -1.2651962186    0.2249849833
C        4.1351697663   -2.8980458461   -1.7379047292
C        3.7627764896   -3.2726331849   -0.3008558702
N        2.5306250191   -2.5746717358    0.1229837050
N        4.2728537692   -1.5873197108   -2.1308127075
O        4.3286050366   -3.7534441488   -2.5874768178
F        3.6154871681    0.6748998591    2.1470733651
H       -2.2659018518    1.1944412891    0.6203783306
H       -0.7200951575    1.2330538708    2.5620478637
H       -1.6033985305   -0.0042175442   -1.4522294723
H        6.7407947107    1.9765927107   -0.8125066372
H        1.4290518408    0.0853978544    2.4597374665
H        0.5916703771   -1.1273336133   -1.5847490115
H        6.1162817466    0.2071966630   -2.4061418773
H        5.5376300057    2.1564585839    1.3464587196
H        3.5991551538   -4.3530888632   -0.2594499944
H        4.5953400547   -3.0350275970    0.3672950978
H        4.6383186784   -1.5090367352   -3.0711347014
30   

C       -1.3580658253    0.6328747687    0.5156820826
C       -0.3864526838    0.9434740872    1.4667333849
C       -1.0605071251   -0.2793485711   -0.4946595305
C        5.9471294948    1.3149721949   -0.4304648163
C        0.8805870571    0.3491092431    1.4055235977
C        0.2057462299   -0.8694612323   -0.5512247284
C        5.5147142758    0.4427345989   -1.4229491728
C        5.3460814849    1.2691317559    0.8226551277
C        1.2103537855   -0.5631871582    0.3913634498
C        3.7753018618   -0.4187882330    0.0482782042
C        4.4632289972   -0.4466214520   -1.1901382207
C        4.2833679670    0.3991511165    1.0803416049
C        2.5378759208   -1.2458880739    0.2399356253
C        4.0645654670   -2.7178392399   -1.8826898516
C        3.7504981812   -3.2017527613   -0.4606193930
N        2.5277593044   -2.5472372875    0.0531833961
N        4.1734681832   -1.3789974886   -2.1881145906
O        4.2304081857   -3.5088472939   -2.7979891811
F        3.8109482612    0.3268470924    2.3426551908
H       -2.3390039186    1.0921326847    0.5649145778
H       -0.6157251394    1.6441764682    2.2615771999
H       -1.8095160755   -0.5344208936   -1.2358092683
H        6.7671688814    1.9992038736   -0.6221484898
H        1.5724788082    0.6157578821    2.1868410250
H        0.4162755879   -1.5799954511   -1.3440005505
H        6.0224388783    0.4407459419   -2.3805895359
H        5.7085589412    1.9074421891    1.6195905008
H        3.5963817339   -4.2839591788   -0.4914464259
H        4.6049801158   -3.0051086726    0.1931885775
H        4.5013741152   -1.2302793817   -3.1337275252
30   

C       -1.3926607844    0.5992566906    0.5540669602
C       -0.3293828063    1.1115694552    1.2958412389
C       -1.1772491536   -0.4886207687   -0.2886092420
C        5.9684315246    1.3159074000   -0.2960386033
C        0.9455428988    0.5403426082    1.1948234301
C        0.0968831772   -1.0562191701   -0.3856578744
C        5.5349422760    0.5110681462   -1.3448937411
C        5.3546750543    1.2020826785    0.9478270698
C        1.1951930337   -0.5529891977    0.3490428314
C        3.7675022691   -0.4052246380    0.0524995867
C        4.4691088768   -0.3754646077   -1.1755873696
C        4.2765688052    0.3340564997    1.1400452026
C        2.5225424563   -1.2307163947    0.1990942365
C        4.0687676093   -2.6101139001   -1.9677830764
C        3.7534196456   -3.1529697009   -0.5658505622
N        2.5252126994   -2.5268025576   -0.0284897358
N        4.1836824021   -1.2595479619   -2.2171162072
O        4.2359062284   -3.3633552429   -2.9142277035
F        3.7795411971    0.1842302923    2.3889039785
H       -2.3791973635    1.0421667423    0.6325779755
H       -0.4908258483    1.9576310723    1.9542014347
H       -1.9964474763   -0.8980738439   -0.8688354153
H        6.8006120239    1.9976463778   -0.4378685062
H        1.7201363606    0.9948029513    1.7907328779
H        0.2324353878   -1.9046575702   -1.0484771156
H        6.0547229676    0.5561603640   -2.2949886729
H        5.7192087135    1.7833309331    1.7864057168
H        3.6057617810   -4.2339094489   -0.6407437783
H        4.6051841951   -2.9789029140    0.0978530765
H        4.5177857276   -1.0708926374   -3.1533718355
30   

C       -1.4003710979    0.6056224062    0.6098559807
C       -0.2710418526    1.2498608840    1.1118876045
C       -1.2565384902   -0.6144009713   -0.0461842322
C        5.9831253369    1.3009776110   -0.1764185758
C        0.9979020472    0.6771238559    0.9595581623
C        0.0118370526   -1.1838589515   -0.1954166785
C        5.5798867902    0.5316106585   -1.2637692624
C        5.3175944727    1.1653694497    1.0385315901
C        1.1767213221   -0.5509647835    0.3009932529
C        3.7504551548   -0.3999427001    0.0392127777
C        4.4974165035   -0.3451126402   -1.1605731690
C        4.2210318111    0.3086824624    1.1637725461
C        2.5016625607   -1.2251632483    0.1332735185
C        4.1045869842   -2.5502606224   -2.0310201034
C        3.7528666349   -3.1295990605   -0.6527738272
N        2.5134676303   -2.5159412905   -0.1261967678
N        4.2392805600   -1.1946076007   -2.2368846121
O        4.2918676420   -3.2777552580   -2.9937222221
F        3.6495865142    0.1518960491    2.3809472178
H       -2.3823776390    1.0499679323    0.7273601481
H       -0.3758647410    2.2017136827    1.6201164685
H       -2.1273428678   -1.1255528336   -0.4409344372
H        6.8293172798    1.9741741453   -0.2670010974
H        1.8276493239    1.2441655513    1.3530137397
H        0.0831498039   -2.1365481406   -0.7097336420
H        6.1364222620    0.5959105463   -2.1916994791
H        5.6527518795    1.7226580105    1.9052067213
H        3.6052588103   -4.2077029347   -0.7609989778
H        4.5887079506   -2.9764451113    0.0358363242
H        4.6021580504   -0.9808316430   -3.1568886786
30   

C       -1.3883146280    0.6314768365    0.6646859305
C       -0.2219003441    1.3524235882    0.9149522229
C       -1.2968549132   -0.6815158862    0.2086312932
C        5.9872362349    1.2649925386   -0.0650724251
C        1.0321794345    0.7632588111    0.7118254896
C       -0.0431981409   -1.2676859875    0.0075963954
C        5.6290038346    0.5157053683   -1.1818553723
C        5.2560620584    1.1279261032    1.1110729262
C        1.1572832009   -0.5583686788    0.2527167738
C        3.7284524726   -0.4144806634    0.0166424526
C        4.5320365842   -0.3486482671   -1.1461956545
C        4.1435912321    0.2852212868    1.1691088146
C        2.4754256581   -1.2336682763    0.0526186938
C        4.1432465808   -2.5237045299   -2.0931282786
C        3.7327783178   -3.1326011664   -0.7455099196
N        2.4843048986   -2.5167853452   -0.2437563773
N        4.3107766208   -1.1665633646   -2.2544669762
O        4.3572161579   -3.2281737986   -3.0673266412
F        3.4862494598    0.1481314932    2.3447215241
H       -2.3589589773    1.0885109805    0.8213817045
H       -0.2866585040    2.3765302042    1.2646602987
H       -2.1971679262   -1.2519800522    0.0101510168
H        6.8453565502    1.9280071491   -0.1038902224
H        1.8928017863    1.3891287399    0.9003151332
H       -0.0146347428   -2.2935394887   -0.3442791098
H        6.2309667925    0.5873177955   -2.0804454754
H        5.5482954329    1.6764439768    1.9986760248
H        3.5751224327   -4.2052743103   -0.8879983657
H        4.5455531026   -3.0099072989   -0.0240049826
H        4.7143813773   -0.9338935560   -3.1526684146
30   

C       -1.3665012185    0.6556354971    0.7279192498
C       -0.1965251293    1.4143167699    0.7288051564
C       -1.2968028052   -0.7123961804    0.4712114331
C        5.9772825932    1.2274914366    0.0316489489
C        1.0397534285    0.8075293991    0.4757963760
C       -0.0605506624   -1.3161626273    0.2196134290
C        5.6692459675    0.4898587422   -1.1074984235
C        5.1816718026    1.0955282880    1.1653501690
C        1.1405478513   -0.5688355882    0.2159807932
C        3.7055330177   -0.4373717280   -0.0122069439
C        4.5636763982   -0.3640830148   -1.1361256137
C        4.0597405445    0.2639150905    1.1605739805
C        2.4475223083   -1.2448981690   -0.0352086912
C        4.1703517841   -2.5047955498   -2.1651628256
C        3.6942367584   -3.1435708376   -0.8553346733
N        2.4428131221   -2.5169140296   -0.3757281152
N        4.3809338908   -1.1494957056   -2.2746366095
O        4.4067986596   -3.1838408136   -3.1521178591
F        3.3293420809    0.1449595458    2.2940258971
H       -2.3237936564    1.1259301356    0.9228172234
H       -0.2454626385    2.4799650776    0.9217841920
H       -2.2004798584   -1.3113174811    0.4669880738
H        6.8426924617    1.8820468878    0.0418099267
H        1.9088798971    1.4523535396    0.4646264334
H       -0.0441479172   -2.3839005475    0.0280858982
H        6.3152832631    0.5654395119   -1.9746193791
H        5.4283684470    1.6413555168    2.0683309041
H        3.5185729562   -4.2073390763   -1.0379056040
H        4.4824241240   -3.0628563352   -0.1014005811
H        4.8269245549   -0.8995458492   -3.1478104040
30   

C       -1.3415591062    0.6743516851    0.7850537980
C       -0.2016828676    1.4434633221    0.5480500525
C       -1.2583804134   -0.7165902555    0.7242576086
C        5.9601958019    1.1981274436    0.1163355465
C        1.0184729035    0.8235883441    0.2530448900
C       -0.0378558573   -1.3334104430    0.4300582047
C        5.6990460270    0.4703293068   -1.0404552146
C        5.1087627295    1.0709605270    1.2087906646
C        1.1291328790   -0.5746078033    0.1911146548
C        3.6845206585   -0.4559019296   -0.0397823521
C        4.5893646105   -0.3745734118   -1.1271448005
C        3.9819618097    0.2485558469    1.1476858045
C        2.4217998663   -1.2480046602   -0.1205837588
C        4.1841500821   -2.4755785321   -2.2425941702
C        3.6469638493   -3.1458241224   -0.9745827173
N        2.3979968208   -2.5060711258   -0.5071233281
N        4.4415346310   -1.1258190726   -2.2937875573
O        4.4349687444   -3.1253987497   -3.2455165457
F        3.1944080590    0.1408822692    2.2432423605
H       -2.2870115165    1.1541375558    1.0119354485
H       -0.2625238970    2.5250760333    0.5881535066
H       -2.1394459355   -1.3221379649    0.9041152797
H        6.8293053574    1.8455504580    0.1707691559
H        1.8731195562    1.4600770320    0.0562910396
H       -0.0018080804   -2.4170397047    0.3899743875
H        6.3827872423    0.5503435281   -1.8777607548
H        5.3140842084    1.6143074522    2.1235512982
H        3.4502739312   -4.1972324978   -1.2018891686
H        4.4124853781   -3.1141338558   -0.1941499995
H        4.9250972086   -0.8585396014   -3.1414753588
30   

C       -1.3225527024    0.6905416132    0.8372419370
C       -0.2413704608    1.4407932121    0.3701245551
C       -1.1943912777   -0.6923199938    0.9789309631
C        5.9459713839    1.1522928560    0.2153264303
C        0.9659650511    0.8097103227    0.0480803237
C        0.0135495526   -1.3204754752    0.6571364367
C        5.7231230744    0.4323070701   -0.9539626323
C        5.0472342199    1.0349896276    1.2698006319
C        1.1181926578   -0.5779453543    0.1932471059
C        3.6627337429   -0.4808333631   -0.0367872791
C        4.6080796364   -0.3990852361   -1.0901957300
C        3.9144387406    0.2261213556    1.1605995850
C        2.3944551000   -1.2527502402   -0.1713677642
C        4.1855486609   -2.4621850270   -2.2795675332
C        3.5913521482   -3.1550713758   -1.0511493685
N        2.3482278977   -2.4978291677   -0.5934728805
N        4.4896531176   -1.1218349840   -2.2784126727
O        4.4461739802   -3.0871314147   -3.2956705710
F        3.0809219180    0.1325068386    2.2229234520
H       -2.2587132132    1.1783064984    1.0846669009
H       -0.3389072346    2.5140138328    0.2524167451
H       -2.0312858599   -1.2820478163    1.3354287487
H        6.8194357607    1.7894540212    0.3076855734
H        1.7839590569    1.4153779997   -0.3260071842
H        0.0936678649   -2.3968291067    0.7678509766
H        6.4391784944    0.5112949712   -1.7638988036
H        5.2189768089    1.5763531993    2.1926131274
H        3.3724539939   -4.1926003352   -1.3184695200
H        4.3350663572   -3.1709894460   -0.2494789508
H        5.0074576696   -0.8440136212   -3.1021742466
30   

C       -1.2994718824    0.7018746116    0.8570976185
C       -0.3073142456    1.4110842028    0.1749283953
C       -1.0903713583   -0.6394339050    1.1871561593
C        5.9610361170    1.1065018580    0.3007667897
C        0.8932033564    0.7807096556   -0.1727417035
C        0.1107571733   -1.2670071958    0.8391513717
C        5.7639173335    0.4145277003   -0.8895054541
C        5.0257155457    0.9855642260    1.3219880627
C        1.1242359914   -0.5607883036    0.1655193635
C        3.6625071069   -0.4870004501   -0.0558214265
C        4.6403077927   -0.3946763133   -1.0791790216
C        3.8840551686    0.1981664577    1.1609540910
C        2.3878584588   -1.2329274708   -0.2481526963
C        4.1993090244   -2.4042930999   -2.3581661159
C        3.5559703732   -3.1291620282   -1.1747110971
N        2.3202481158   -2.4598508499   -0.7152363283
N        4.5431290350   -1.0755166986   -2.2941143261
O        4.4676553409   -2.9944536459   -3.3928512429
F        3.0166309333    0.1031155232    2.1956078270
H       -2.2308034473    1.1884292611    1.1243061947
H       -0.4696702052    2.4497297443   -0.0896904549
H       -1.8599885257   -1.1972861099    1.7084087318
H        6.8411056853    1.7270625542    0.4341452619
H        1.6483088031    1.3420504531   -0.7123361696
H        0.2596440672   -2.3122716386    1.0887112912
H        6.5056659047    0.5004216615   -1.6752357494
H        5.1748130132    1.5079216321    2.2595563562
H        3.3163810179   -4.1484249839   -1.4902709228
H        4.2797962626   -3.1989975559   -0.3578976557
H        5.0905342692   -0.7808457979   -3.0925155170
30   

C       -1.3090451742    0.7109667457    0.8662994024
C       -0.4285543868    1.3366627309   -0.0211808596
C       -0.9902644474   -0.5443289593    1.3918211251
C        5.9753401621    1.0338080974    0.4082367561
C        0.7711076543    0.7097294566   -0.3780236384
C        0.2098209702   -1.1684932663    1.0338558608
C        5.7903076027    0.3765351686   -0.8031448100
C        5.0145306528    0.9084131488    1.4045835635
C        1.1110176950   -0.5398070123    0.1575497092
C        3.6531758908   -0.5034982204   -0.0379993061
C        4.6544738888   -0.4031540243   -1.0383432969
C        3.8605930789    0.1496800818    1.1992437863
C        2.3687059663   -1.2163693691   -0.2797109710
C        4.1902896804   -2.3576129882   -2.3961015744
C        3.5054770934   -3.1073113354   -1.2526501647
N        2.2790823543   -2.4236371931   -0.7899174071
N        4.5682212267   -1.0422071984   -2.2768043891
O        4.4625049695   -2.9164029585   -3.4470443094
F        2.9702441375    0.0504522431    2.2135978669
H       -2.2399646289    1.1942369406    1.1407947784
H       -0.6777134141    2.3059356744   -0.4378503203
H       -1.6747503954   -1.0386914334    2.0717172228
H        6.8646661147    1.6322671341    0.5765261157
H        1.4419593457    1.1981580854   -1.0765078436
H        0.4462147350   -2.1497196658    1.4312721683
H        6.5503973323    0.4678556659   -1.5705000785
H        5.1526378306    1.4055045756    2.3574245095
H        3.2456077042   -4.1076111087   -1.6101044690
H        4.2116787894   -3.2263770101   -0.4261870955
H        5.1394875007   -0.7342944118   -3.0531990903
30   

C       -1.3335032178    0.7530123976    0.8391646218
C       -0.5715605332    1.2342522774   -0.2299462850
C       -0.8950264758   -0.3624283314    1.5588259206
C        5.9909154010    0.9684538040    0.5333608212
C        0.6306379848    0.6048018914   -0.5737384607
C        0.3069912934   -0.9897988745    1.2129315825
C        5.8042036834    0.3636818055   -0.7044626530
C        5.0201981635    0.8198550897    1.5164464521
C        1.0910485077   -0.4983622295    0.1556522339
C        3.6456737061   -0.5101658929    0.0090855299
C        4.6570949786   -0.3859756981   -0.9791485593
C        3.8548900999    0.0903593911    1.2725579865
C        2.3503728990   -1.1873814446   -0.2767086218
C        4.1715922651   -2.2725277627   -2.4233394637
C        3.4588820452   -3.0561927593   -1.3207299278
N        2.2413332539   -2.3660976843   -0.8449047584
N        4.5705034544   -0.9702151174   -2.2445208748
O        4.4445066203   -2.7907204740   -3.4947036583
F        2.9573583807   -0.0322802707    2.2770411767
H       -2.2661260221    1.2382019172    1.1043421852
H       -0.9151135091    2.0918151516   -0.7971912141
H       -1.4885113165   -0.7465301712    2.3806507256
H        6.8886239565    1.5447115856    0.7318471058
H        1.2091657442    0.9755552486   -1.4129672587
H        0.6364706748   -1.8651559882    1.7619817784
H        6.5714167442    0.4733927172   -1.4622440584
H        5.1590914283    1.2764973980    2.4891918814
H        3.1828141342   -4.0347093206   -1.7234773358
H        4.1523455398   -3.2244687659   -0.4920651695
H        5.1548079345   -0.6398145938   -3.0017318374
30   

C       -1.3581339970    0.7336123878    0.7422031423
C       -0.7063465508    1.0006381710   -0.4655995192
C       -0.8038037604   -0.1790479801    1.6445729715
C        6.0146909309    0.8815362805    0.6284390317
C        0.5047877718    0.3655113329   -0.7641132626
C        0.4063140708   -0.8143125966    1.3437300662
C        5.8047507290    0.3505378373   -0.6384173957
C        5.0634546664    0.6720257261    1.6187051714
C        1.0873620597   -0.5235980986    0.1491803092
C        3.6572194063   -0.5665734835    0.0614889492
C        4.6530320538   -0.3833734123   -0.9348454956
C        3.8933464125   -0.0428323443    1.3544180797
C        2.3549684202   -1.2225114471   -0.2563019269
C        4.1615719184   -2.1924293818   -2.4699149079
C        3.4561155393   -3.0326681199   -1.4048539747
N        2.2405331545   -2.3631120445   -0.8963585345
N        4.5479463306   -0.8961750960   -2.2295309415
O        4.4305281261   -2.6541311971   -3.5677997773
F        3.0222613240   -0.2263087341    2.3704683948
H       -2.2968362026    1.2243912064    0.9735182240
H       -1.1422218192    1.6951984327   -1.1747102302
H       -1.3149072577   -0.4018083777    2.5742621071
H        6.9155066145    1.4468568527    0.8435896064
H        0.9963693827    0.5651314287   -1.7102500167
H        0.8161960520   -1.5411730079    2.0362140640
H        6.5575551466    0.5056945355   -1.4026783838
H        5.2217163581    1.0693583419    2.6142555200
H        3.1783443481   -3.9898288748   -1.8549447868
H        4.1522535958   -3.2404164518   -0.5874796143
H        5.1216109807   -0.5224804367   -2.9746491358
30   

C       -1.3772893031    0.7146724252    0.6202067100
C       -0.8282521787    0.7153434630   -0.6645297262
C       -0.7170959527    0.0493265862    1.6565651530
C        6.0550345736    0.7931342752    0.6724282644
C        0.3906604434    0.0718642845   -0.9058593123
C        0.5005404278   -0.5972941642    1.4142066375
C        5.7843953583    0.3747444152   -0.6238130807
C        5.1620615390    0.4752261952    1.6870077022
C        1.0926369648   -0.5527874913    0.1381022851
C        3.6785600564   -0.6269425460    0.0971031487
C        4.6261509442   -0.3464465004   -0.9245886704
C        3.9861803287   -0.2297431891    1.4199663386
C        2.3643464633   -1.2594825517   -0.2413071938
C        4.1231925722   -2.0586554673   -2.5545310582
C        3.4622251908   -2.9780767730   -1.5256215177
N        2.2484247439   -2.3546651848   -0.9576191922
N        4.4710389712   -0.7648293666   -2.2478220640
O        4.3751958696   -2.4463275198   -3.6846174974
F        3.1903801033   -0.5327866610    2.4649520872
H       -2.3213879881    1.2134826834    0.8084240205
H       -1.3490268461    1.2094707082   -1.4768745905
H       -1.1559846991    0.0206329712    2.6474235381
H        6.9602247680    1.3498872980    0.8915514637
H        0.8004181352    0.0641965772   -1.9104892488
H        0.9542786418   -1.1572439438    2.2213377733
H        6.4960676156    0.6053618488   -1.4081820415
H        5.3728635861    0.7766208446    2.7062100823
H        3.1889356641   -3.9111515892   -2.0261687571
H        4.1804861622   -3.2202779950   -0.7373538975
H        5.0092263255   -0.3289575866   -2.9855834374
30   

C       -1.3535410480    0.7820608060    0.5100470466
C       -0.9606650824    0.4034123714   -0.7743210247
C       -0.5453812289    0.4626193674    1.6025706176
C        6.0167579094    0.6989790561    0.7933551588
C        0.2400330362   -0.2886128289   -0.9646328797
C        0.6563934570   -0.2306363654    1.4142705930
C        5.6778571793    0.4764183152   -0.5366347829
C        5.2205364954    0.1576730496    1.7968715291
C        1.0719711900   -0.6146682061    0.1226275039
C        3.6612515128   -0.7072596182    0.1432063242
C        4.5327539442   -0.2482290354   -0.8749763735
C        4.0615007647   -0.5592181180    1.4882300863
C        2.3452140741   -1.3322541737   -0.2156694625
C        4.0589423458   -1.8302134107   -2.6270997482
C        3.4893511714   -2.8783549051   -1.6614630815
N        2.2591147693   -2.3745829206   -1.0129912369
N        4.3281274972   -0.5406138100   -2.2246450747
O        4.2955762758   -2.1061178092   -3.7927916250
F        3.3842412779   -1.1440977766    2.4988779441
H       -2.2840385104    1.3183834297    0.6588172960
H       -1.5858127997    0.6448067375   -1.6265219233
H       -0.8517901800    0.7492291866    2.6022388260
H        6.9108556115    1.2603990198    1.0439011823
H        0.5273084705   -0.5722936957   -1.9720088105
H        1.2265088370   -0.4650464737    2.2982429442
H        6.3299560430    0.8521063781   -1.3166873307
H        5.5017499864    0.2812517867    2.8359034976
H        3.2540935780   -3.7805728183   -2.2328889052
H        4.2452089164   -3.1430712136   -0.9165907212
H        4.8111277799   -0.0113885215   -2.9391206911
30   

C       -1.3633365956    0.7961026416    0.4930161337
C       -1.1150612582    0.1641538378   -0.7255283149
C       -0.4021967924    0.7486201625    1.5033329328
C        6.0119898363    0.6161563557    0.8979653029
C        0.0869787650   -0.5221218164   -0.9290982367
C        0.8018632975    0.0636922337    1.3014995037
C        5.6853557173    0.4823178533   -0.4480391348
C        5.1994938977    0.0206359766    1.8584176419
C        1.0590044750   -0.6080423121    0.0866607032
C        3.6489236996   -0.7110058632    0.1371393470
C        4.5359847598   -0.2064079684   -0.8421436734
C        4.0354335801   -0.6599687207    1.4919296383
C        2.3335954269   -1.3137094197   -0.2598973565
C        4.0775465266   -1.7038731091   -2.6665298797
C        3.5097390552   -2.7971523426   -1.7488293840
N        2.2685513760   -2.3335572556   -1.0898418817
N        4.3448780688   -0.4329121880   -2.2058159456
O        4.3203357960   -1.9284360484   -3.8419800096
F        3.3279509993   -1.3012256044    2.4502005466
H       -2.2951422950    1.3274676263    0.6511391919
H       -1.8530052692    0.2062911413   -1.5186400733
H       -0.5864163780    1.2496372748    2.4469471920
H        6.9103472363    1.1489178322    1.1921204171
H        0.2524869385   -0.9921889592   -1.8930508556
H        1.5133900517    0.0852259017    2.1116237578
H        6.3514544788    0.8951268152   -1.1968941414
H        5.4718567098    0.0727758274    2.9058227591
H        3.2885355486   -3.6772424619   -2.3590379528
H        4.2620477263   -3.0859535173   -1.0093198654
H        4.8338217595    0.1283528283   -2.8911788546
30   

C       -1.3860581849    0.7641686954    0.5355377256
C       -1.2464497922   -0.0587482695   -0.5816299556
C       -0.3081462476    0.9356663005    1.4037200734
C        6.0137882143    0.5403820601    0.9934083140
C       -0.0368606442   -0.7195874896   -0.8227335962
C        0.9031260732    0.2768014555    1.1639018123
C        5.7266048698    0.4458132884   -0.3651509113
C        5.1511794153   -0.0461576649    1.9149809824
C        1.0542852004   -0.5929591113    0.0599327243
C        3.6412978568   -0.7031096428    0.1279889030
C        4.5715075511   -0.2005028728   -0.8115224302
C        3.9799076509   -0.6823520033    1.4964443340
C        2.3300522376   -1.2797451729   -0.3125517803
C        4.1318821509   -1.6360353074   -2.6878929484
C        3.5281025238   -2.7426376886   -1.8109726332
N        2.2781499270   -2.2810910005   -1.1669493130
N        4.4152396330   -0.3851831643   -2.1854767069
O        4.3978129407   -1.8341947836   -3.8631071942
F        3.2016040584   -1.2944094727    2.4197155795
H       -2.3236370157    1.2759081515    0.7217589121
H       -2.0755015092   -0.1847724632   -1.2687696415
H       -0.4061622371    1.5895047249    2.2629257355
H        6.9176107343    1.0392618116    1.3275668774
H        0.0317179919   -1.3381079341   -1.7114630793
H        1.7107880165    0.4811931953    1.8509981233
H        6.4277367017    0.8558323994   -1.0829361409
H        5.3868991372   -0.0183653053    2.9721984424
H        3.3100248529   -3.6042846048   -2.4480084276
H        4.2596816455   -3.0600172585   -1.0624669834
H        4.9326547630    0.1848557281   -2.8420878488
30   

C       -1.3964031409    0.7294320533    0.5971409367
C       -1.3381237393   -0.2485857312   -0.3951525645
C       -0.2364016200    1.0802478597    1.2868101878
C        6.0056568635    0.4601191680    1.0697076411
C       -0.1262386659   -0.8839998042   -0.6885068288
C        0.9765181611    0.4467210552    0.9942810666
C        5.7684820470    0.3925261125   -0.3000201792
C        5.0857338219   -0.1019818739    1.9496462475
C        1.0523946150   -0.5748946119    0.0188859514
C        3.6319643123   -0.6998571357    0.0949870440
C        4.6114670230   -0.2092517163   -0.8010961225
C        3.9113930189   -0.6927760809    1.4776545852
C        2.3251406760   -1.2411842249   -0.3933222778
C        4.1875221398   -1.5725492510   -2.7358108657
C        3.5282086711   -2.6854692715   -1.9109643014
N        2.2747788086   -2.2113183547   -1.2835261361
N        4.4980796164   -0.3502733391   -2.1842756430
O        4.4819744198   -1.7425999374   -3.9086314614
F        3.0606788898   -1.2594438192    2.3653233813
H       -2.3357132606    1.2216583017    0.8229877031
H       -2.2332291923   -0.5157290152   -0.9453988209
H       -0.2724217538    1.8538943109    2.0454214431
H        6.9116588369    0.9243010204    1.4454177488
H       -0.1283957553   -1.6289528160   -1.4771036076
H        1.8493841355    0.7890432973    1.5329311781
H        6.5091489113    0.7910345038   -0.9837996859
H        5.2758356450   -0.0868862977    3.0163022906
H        3.3039233242   -3.5204808811   -2.5804737130
H        4.2303370054   -3.0467266528   -1.1542243476
H        5.0531095649    0.2229626402   -2.8064819528
30   

C       -1.3918392899    0.6969401695    0.6637733204
C       -1.3799183219   -0.4096512703   -0.1857078586
C       -0.1882152222    1.2002985817    1.1573241929
C        5.9900302143    0.3834886453    1.1518589243
C       -0.1686602618   -1.0188420997   -0.5330618207
C        1.0235053005    0.5927597493    0.8105077267
C        5.8113860948    0.3299805977   -0.2271593156
C        5.0103079783   -0.1431605302    1.9874039031
C        1.0564389666   -0.5485410046   -0.0233314457
C        3.6261316705   -0.6973844874    0.0657491627
C        4.6577949962   -0.2283806077   -0.7838681586
C        3.8384000989   -0.6908693395    1.4612770871
C        2.3243245580   -1.1945799769   -0.4736934371
C        4.2495298670   -1.5184350883   -2.7761697026
C        3.5206538405   -2.6274703671   -2.0098923152
N        2.2680087630   -2.1283451200   -1.4014059741
N        4.5950334773   -0.3311785155   -2.1737794566
O        4.5760461026   -1.6634086658   -3.9438470080
F        2.9225694075   -1.2123454904    2.3107243741
H       -2.3308181151    1.1686752592    0.9309126816
H       -2.3111926362   -0.7979029177   -0.5823185563
H       -0.1908920123    2.0703458539    1.8040745404
H        6.8940666819    0.8141296684    1.5698748628
H       -0.2047744983   -1.8710200126   -1.2034201226
H        1.9335165432    1.0406877305    1.1894363043
H        6.5937218518    0.7092229195   -0.8745400918
H        5.1497094151   -0.1320463131    3.0619302346
H        3.2850753858   -3.4306329745   -2.7136194114
H        4.1849196795   -3.0411237317   -1.2458614424
H        5.1936995182    0.2373407205   -2.7587498303
