39   

C        1.2307638128   -4.6073200505   -0.3278654494
C        2.3179501119   -3.2647119489    1.3426260840
C        0.7042839223    1.1875326926    1.4244392909
C        2.0626459391   -5.6832841410    0.0048882878
C        3.1309047147   -4.3516164916    1.6874609001
C       -0.0080791595    2.3580281503    1.7022719672
C       -1.4791423579    1.8803799689   -0.1289589976
C        1.3527189455   -3.3630866171    0.3240435780
C        0.3299783174    0.3422362162    0.3689912859
C       -0.7719017201    0.7029459353   -0.4275842933
C        3.0152622562   -5.5663405179    1.0125687880
C       -1.1094816607    2.7091096657    0.9263087478
C       -0.7445120571   -2.4227169223   -0.5765441296
C        0.5248826334   -2.1890954448   -0.0558720529
C        1.1433999936   -0.8482102778    0.0905892497
C        2.4015636298   -0.6031582889   -0.4540573826
C       -1.1815028767   -0.1267441911   -1.6109488062
C       -1.7528168497   -1.4498253361   -1.1335348409
C        3.8197895605   -0.7374119331    0.0752947803
O        3.8182787154   -6.6239477183    1.3268970695
O       -1.8121277460    3.8495224065    1.1846113675
H        0.5350800261   -4.7423941850   -1.1461014314
H        2.4174411319   -2.3412183715    1.8993682501
H        1.5638884216    0.9280932530    2.0313841421
H        1.9813674943   -6.6201732051   -0.5323982350
H        3.8515690608   -4.2392842877    2.4872088929
H        0.3067263484    2.9894653725    2.5234643198
H       -2.3326847344    2.1724179563   -0.7279629285
H       -1.0808522952   -3.4502271846   -0.6199239746
H        2.3709964812    0.2470188493   -1.1270241287
H       -1.9543880180    0.4049983535   -2.1746411641
H       -0.3372050167   -0.2946160718   -2.2869546908
H       -2.2360669752   -1.9392777583   -1.9849050118
H       -2.5325546806   -1.2643592927   -0.3870596583
H        3.8383784323   -0.5658256160    1.1551479734
H        4.4744949985   -0.0034964340   -0.4041122072
H        4.2067156143   -1.7384311209   -0.1367975979
H        4.4234497328   -6.3899199841    2.0500480968
H       -1.4261183986    4.3199306768    1.9422587535
39   

C        1.2414376357   -4.5866066439   -0.2580643733
C        2.3054434109   -3.1745719212    1.3699873505
C        0.6811948943    1.1614669670    1.4292391455
C        2.0508740944   -5.6542483140    0.1481631294
C        3.0961193989   -4.2523662841    1.7878760792
C       -0.0700704430    2.2934822505    1.7593161931
C       -1.5137651228    1.8627583150   -0.1073881232
C        1.3635068618   -3.3131922231    0.3346683885
C        0.3385270382    0.3611304533    0.3298402532
C       -0.7675898100    0.7240577666   -0.4562233584
C        2.9803900773   -5.4981943114    1.1719458116
C       -1.1773609525    2.6483245501    0.9922867650
C       -0.6982102570   -2.3903320416   -0.6710414835
C        0.5567378664   -2.1513510644   -0.1170832371
C        1.1734724134   -0.7982332567   -0.0000884784
C        2.3840404732   -0.5164295812   -0.5967094204
C       -1.1327869439   -0.0667040781   -1.6807306856
C       -1.6884533400   -1.4217223103   -1.2733496841
C        3.8073797990   -0.8948493298   -0.2367578486
O        3.7608603541   -6.5486319505    1.5587125581
O       -1.9181064211    3.7507520751    1.3036019963
H        0.5630530907   -4.7552202374   -1.0844867198
H        2.4034362055   -2.2250092077    1.8816316916
H        1.5435858894    0.8960490096    2.0297397269
H        1.9694559864   -6.6161100040   -0.3430675409
H        3.7991965161   -4.1087207999    2.5982021785
H        0.2183519467    2.8915518139    2.6145461257
H       -2.3718466340    2.1564968228   -0.6989184974
H       -1.0444510432   -3.4150650780   -0.6930099636
H        2.3819830278    0.4407863198   -1.1072467055
H       -1.8994599452    0.4727767308   -2.2455254821
H       -0.2668782916   -0.1917492546   -2.3383572732
H       -2.1075174774   -1.8992721087   -2.1644888324
H       -2.5167227105   -1.2753315291   -0.5718805424
H        3.9598235215   -0.8201323028    0.8433140686
H        4.5133244200   -0.2212024821   -0.7315579207
H        4.0179433884   -1.9181059561   -0.5618972675
H        4.3485575630   -6.2874075529    2.2869321045
H       -1.5562483609    4.1891770346    2.0918100053
39   

C        1.2306526243   -4.5514822722   -0.1989780647
C        2.3243108930   -3.0602098479    1.3365103591
C        0.6550361570    1.1197468477    1.4604669973
C        2.0116716887   -5.6090092141    0.2826109855
C        3.0879719700   -4.1262180987    1.8278509346
C       -0.1378995052    2.2000068641    1.8597849676
C       -1.5519811343    1.8513176549   -0.0487498185
C        1.3799002013   -3.2444277770    0.3094409437
C        0.3464895071    0.3888503199    0.3049072245
C       -0.7646479560    0.7644860695   -0.4647621377
C        2.9417858059   -5.4075612823    1.2977535007
C       -1.2510330676    2.5695701483    1.1069053727
C       -0.6420253369   -2.3319181224   -0.8035209121
C        0.5959214759   -2.0944772689   -0.2103866197
C        1.2018670247   -0.7290488780   -0.0973474485
C        2.3714002128   -0.4007209502   -0.7233489750
C       -1.0836634378    0.0375319764   -1.7418266459
C       -1.6124968098   -1.3569485290   -1.4345981678
C        3.7595811086   -0.9863811654   -0.5909691412
O        3.6933115164   -6.4488659440    1.7592627677
O       -2.0323960777    3.6209547418    1.4877288655
H        0.5503925960   -4.7630623928   -1.0134883521
H        2.4483873051   -2.0818115953    1.7845543870
H        1.5195345293    0.8394044564    2.0510766636
H        1.9060237645   -6.6000717299   -0.1414460259
H        3.7936679569   -3.9451911114    2.6284095123
H        0.1217559204    2.7456231964    2.7582708973
H       -2.4147336529    2.1549444349   -0.6282590877
H       -1.0018583797   -3.3515215529   -0.8206976892
H        2.4066928691    0.6219251148   -1.0837190054
H       -1.8477830446    0.5917474599   -2.2956712009
H       -0.1981099346   -0.0263616230   -2.3817754742
H       -1.9594037307   -1.8024166886   -2.3721042827
H       -2.4885942689   -1.2671537796   -0.7836470001
H        4.0702958000   -0.9991827090    0.4571697610
H        4.4768513204   -0.3826152903   -1.1548129396
H        3.7779529088   -2.0065723705   -0.9862562518
H        4.2822274554   -6.1545254416    2.4737675207
H       -1.6966525661    4.0095078572    2.3128469912
39   

C        1.2415168858   -4.5475047465   -0.1427019999
C        2.3468536175   -3.0066328203    1.3345298787
C        0.6604532295    1.0765246185    1.4681711663
C        1.9979055527   -5.5952775873    0.3963911731
C        3.0870372503   -4.0617772177    1.8816048745
C       -0.1602578320    2.1210713052    1.9047446716
C       -1.5566366114    1.8148081547   -0.0255321862
C        1.4081595065   -3.2209250413    0.3071531875
C        0.3734397211    0.3858336298    0.2830170453
C       -0.7418542550    0.7634052568   -0.4775984471
C        2.9218264779   -5.3635376063    1.4106882464
C       -1.2785168293    2.4934689105    1.1600758476
C       -0.5789710672   -2.3203473004   -0.8869708588
C        0.6453156932   -2.0810111907   -0.2662788395
C        1.2393202888   -0.7078861955   -0.1560251608
C        2.4100669962   -0.3605077898   -0.7494383112
C       -1.0306118612    0.0738790786   -1.7832109025
C       -1.5367719470   -1.3430158633   -1.5377943250
C        3.7218185669   -1.1062034279   -0.8010323597
O        3.6491320478   -6.3954766008    1.9285581544
O       -2.0875493891    3.5087860272    1.5790721284
H        0.5647227629   -4.7873342207   -0.9519972774
H        2.4879447535   -2.0111966327    1.7380627813
H        1.5264883857    0.7907764990    2.0539208266
H        1.8768998425   -6.6033612690    0.0190919695
H        3.7894837496   -3.8558454467    2.6790455158
H        0.0808332284    2.6356775238    2.8264408235
H       -2.4233184185    2.1199462536   -0.5982525534
H       -0.9465750466   -3.3369071817   -0.9004104992
H        2.5089541629    0.6925885282   -0.9902439566
H       -1.7946867008    0.6337964450   -2.3313171511
H       -0.1334579503    0.0493267173   -2.4095916290
H       -1.8352678339   -1.7679672396   -2.5011007637
H       -2.4412544866   -1.2889325888   -0.9227941936
H        4.1436924988   -1.2083853714    0.2024416604
H        4.4382260775   -0.5579727691   -1.4200004676
H        3.5779526398   -2.0996072978   -1.2368207848
H        4.2357879453   -6.0786463673    2.6352951746
H       -1.7693601195    3.8665542626    2.4248464716
39   

C        1.2434413858   -4.4908360934   -0.1573921352
C        2.3446229184   -2.9284802371    1.3003672996
C        0.6248866553    1.0999027911    1.4589617122
C        1.9912139734   -5.5318830658    0.4062574308
C        3.0769719018   -3.9765819377    1.8708487885
C       -0.2141575748    2.1203445462    1.9171364020
C       -1.6029063099    1.8334212065   -0.0224214828
C        1.4115079375   -3.1569175690    0.2702937496
C        0.3503139766    0.4316145655    0.2580817036
C       -0.7696600145    0.8062123862   -0.4957631219
C        2.9090252179   -5.2858723304    1.4226724458
C       -1.3378244670    2.4900324645    1.1788680002
C       -0.5614143264   -2.2688003871   -0.9613792309
C        0.6538854183   -2.0235532367   -0.3253322463
C        1.2261581487   -0.6428978940   -0.2049514004
C        2.4193218151   -0.2848782522   -0.7334402375
C       -1.0392527168    0.1403529901   -1.8182454726
C       -1.5211330559   -1.2924162130   -1.6130402349
C        3.6457043825   -1.1283670117   -0.9632045040
O        3.6279899967   -6.3113711076    1.9644138743
O       -2.1646700664    3.4815456482    1.6195451069
H        0.5709645736   -4.7440196913   -0.9660714620
H        2.4900213572   -1.9266436026    1.6862838215
H        1.4938218037    0.8145486097    2.0406091119
H        1.8677421186   -6.5462794937    0.0470839762
H        3.7756899716   -3.7589987344    2.6684978043
H        0.0165164851    2.6178623604    2.8508291777
H       -2.4734931384    2.1365586881   -0.5901975215
H       -0.9252190636   -3.2864380443   -0.9810592909
H        2.5766775791    0.7805327184   -0.8628882434
H       -1.8084445443    0.6998138969   -2.3595880616
H       -0.1370524019    0.1468353375   -2.4378739328
H       -1.7932315913   -1.7014866106   -2.5909123050
H       -2.4384252446   -1.2676328939   -1.0154313997
H        4.1522045906   -1.3345718521   -0.0164242838
H        4.3442980153   -0.5967303158   -1.6160580624
H        3.3778266856   -2.0734637698   -1.4452894084
H        4.2108827380   -5.9842774340    2.6696038604
H       -1.8545010711    3.8242598160    2.4745015653
39   

C        1.2507096248   -4.4801218981   -0.1452373037
C        2.3429452032   -2.9075339408    1.3082743504
C        0.6149864701    1.1034043024    1.4511355691
C        1.9924067235   -5.5176322926    0.4326830092
C        3.0695457106   -3.9520483706    1.8925544541
C       -0.2335870650    2.1138026546    1.9139335179
C       -1.6170605476    1.8261969192   -0.0296133767
C        1.4172898732   -3.1428464869    0.2726823343
C        0.3475379213    0.4398655777    0.2456987094
C       -0.7745345106    0.8085614352   -0.5070792077
C        2.9029496905   -5.2646912275    1.4538557783
C       -1.3593364238    2.4780777956    1.1759999737
C       -0.5470293186   -2.2640489126   -0.9798197098
C        0.6644920463   -2.0135086264   -0.3384912802
C        1.2265625299   -0.6297051992   -0.2222089154
C        2.4560990557   -0.2834620634   -0.6591222756
C       -1.0345988685    0.1465261413   -1.8335452674
C       -1.5066585597   -1.2913453567   -1.6381044342
C        3.6017059608   -1.1815321602   -1.0401860412
O        3.6164403652   -6.2867715683    2.0091149847
O       -2.1955937003    3.4594254562    1.6216344641
H        0.5840317948   -4.7393343820   -0.9567837026
H        2.4883667183   -1.9027818732    1.6865092083
H        1.4842089182    0.8209632344    2.0337910635
H        1.8698562727   -6.5347831806    0.0810422386
H        3.7630211086   -3.7289048601    2.6932409541
H       -0.0091210415    2.6072146164    2.8513263488
H       -2.4892746425    2.1250181060   -0.5971440715
H       -0.9100970318   -3.2819850853   -0.9956479154
H        2.6703412122    0.7793326477   -0.6911128218
H       -1.8050616961    0.7032455857   -2.3758800401
H       -0.1295034038    0.1625370616   -2.4488613721
H       -1.7668421777   -1.6987010224   -2.6199119007
H       -2.4296362535   -1.2753667346   -1.0490190046
H        4.1543179461   -1.4979809203   -0.1514007639
H        4.2911778390   -0.6422353199   -1.6964290784
H        3.2407599024   -2.0642411628   -1.5767772577
H        4.1952696761   -5.9546606848    2.7153074392
H       -1.8906828923    3.7982389562    2.4800364152
39   

C        1.2867963883   -4.4489335477   -0.1441697084
C        2.3654176044   -2.8760001381    1.3190215992
C        0.6300923114    1.1397268537    1.4377602025
C        2.0279217013   -5.4854601688    0.4360372471
C        3.0914855625   -3.9197349171    1.9055420143
C       -0.2235684646    2.1470263739    1.8977051018
C       -1.6060892559    1.8459429666   -0.0443727224
C        1.4467146493   -3.1118353740    0.2770748535
C        0.3661177839    0.4709289059    0.2338165013
C       -0.7585012470    0.8310528307   -0.5188271785
C        2.9314714850   -5.2319745481    1.4631550687
C       -1.3513417184    2.5030999788    1.1590233986
C       -0.5190409685   -2.2421316060   -0.9773146481
C        0.6925557208   -1.9848725729   -0.3385699529
C        1.2474666777   -0.5987596955   -0.2312019240
C        2.5156016120   -0.2750916368   -0.5591040231
C       -1.0154400365    0.1627517401   -1.8425893493
C       -1.4818756402   -1.2761094243   -1.6409426949
C        3.6001785020   -1.1780802486   -1.0773583548
O        3.6445649653   -6.2531834130    2.0205283004
O       -2.1926704290    3.4812374787    1.6021518165
H        0.6260787204   -4.7082549447   -0.9606006317
H        2.5056150764   -1.8719345383    1.7007929081
H        1.4996559119    0.8630945162    2.0227083710
H        1.9104770100   -6.5021992384    0.0814619755
H        3.7793821087   -3.6962986362    2.7109374743
H       -0.0017235661    2.6440568029    2.8338234334
H       -2.4801479142    2.1382120150   -0.6124490938
H       -0.8799857727   -3.2609693475   -0.9857443221
H        2.7739904987    0.7763699171   -0.4962044706
H       -1.7876777705    0.7143079000   -2.3876451057
H       -0.1098916491    0.1796072698   -2.4572835061
H       -1.7395949480   -1.6889501097   -2.6210971721
H       -2.4054363803   -1.2610834566   -1.0527367422
H        4.1812099810   -1.5952501624   -0.2503278615
H        4.2791251225   -0.6088835604   -1.7191494135
H        3.1766503273   -1.9950585266   -1.6695234815
H        4.2182311223   -5.9209353693    2.7308475906
H       -1.8893086794    3.8240358789    2.4595262916
39   

C        1.2648691304   -4.4553607593   -0.1510838714
C        2.3398216819   -2.8917389524    1.3244474887
C        0.6011434936    1.1433241174    1.4199426500
C        2.0081643688   -5.4949102143    0.4206602802
C        3.0679495966   -3.9387539840    1.9027040522
C       -0.2531318643    2.1531799374    1.8729071018
C       -1.6335172903    1.8397594682   -0.0682376213
C        1.4216584632   -3.1210128633    0.2801972293
C        0.3397749853    0.4671795539    0.2185930845
C       -0.7857172938    0.8216066066   -0.5353860543
C        2.9110439488   -5.2477359286    1.4497370807
C       -1.3797996906    2.5049018320    1.1308243226
C       -0.5522284722   -2.2537631449   -0.9601852364
C        0.6636874697   -1.9930439336   -0.3307286081
C        1.2206781028   -0.6073755438   -0.2402504962
C        2.5205051619   -0.3147035992   -0.4566651193
C       -1.0457088015    0.1410523713   -1.8518213270
C       -1.5159344098   -1.2935349441   -1.6308103020
C        3.5623845272   -1.1811952861   -1.1071506230
O        3.6262495026   -6.2718926723    1.9989419521
O       -2.2217393493    3.4855775856    1.5671401752
H        0.6052536230   -4.7092251663   -0.9702069219
H        2.4767386317   -1.8914692907    1.7167435355
H        1.4684097290    0.8701570321    2.0098934148
H        1.8930801292   -6.5089423551    0.0576598038
H        3.7547710854   -3.7204704818    2.7104125427
H       -0.0328338296    2.6552931184    2.8066847393
H       -2.5077026653    2.1275922707   -0.6383658259
H       -0.9145399970   -3.2722528242   -0.9567360408
H        2.8118193443    0.7179882944   -0.2992890658
H       -1.8175197332    0.6885657816   -2.4015211864
H       -0.1410013998    0.1481721030   -2.4679785273
H       -1.7790066269   -1.7174906360   -2.6047688928
H       -2.4368732765   -1.2688102193   -1.0388026393
H        4.1632044450   -1.6922422623   -0.3496817029
H        4.2289432410   -0.5646521941   -1.7173949180
H        3.0957250981   -1.9277892056   -1.7571405831
H        4.1991789099   -5.9441716348    2.7119423296
H       -1.9192705690    3.8337137257    2.4226779248
39   

C        1.2469435039   -4.4732733005   -0.1640804660
C        2.3196626798   -2.9293547640    1.3331045105
C        0.5825693826    1.1409790674    1.3942837392
C        1.9924056481   -5.5197687495    0.3916825437
C        3.0500295984   -3.9835713560    1.8954637266
C       -0.2696783730    2.1587169417    1.8327503844
C       -1.6410365614    1.8312572874   -0.1115577247
C        1.4016030678   -3.1445321212    0.2853577390
C        0.3271849926    0.4543178543    0.1962651716
C       -0.7955176328    0.8044741198   -0.5640589560
C        2.8957123630   -5.2860053583    1.4232834875
C       -1.3902712731    2.5082626685    1.0812007765
C       -0.5809447487   -2.2740678797   -0.9343163017
C        0.6408792531   -2.0122171541   -0.3162680211
C        1.2073580351   -0.6293784800   -0.2493445511
C        2.5313541953   -0.3726870207   -0.3491022739
C       -1.0597279189    0.1052093349   -1.8689863667
C       -1.5417557823   -1.3200103250   -1.6173750107
C        3.5565162665   -1.1625556930   -1.1145980325
O        3.6134861559   -6.3167296019    1.9566217916
O       -2.2301957923    3.4968367318    1.5033336236
H        0.5880075237   -4.7158401297   -0.9873008509
H        2.4529408959   -1.9363876312    1.7441077079
H        1.4431049390    0.8703233035    1.9950938199
H        1.8790739262   -6.5284725189    0.0135952904
H        3.7362278606   -3.7761056665    2.7065315311
H       -0.0526640387    2.6683699314    2.7632194031
H       -2.5123572542    2.1155156759   -0.6878144087
H       -0.9475563192   -3.2910081445   -0.9149247422
H        2.8426046862    0.6344383012   -0.0950468979
H       -1.8278402773    0.6486358502   -2.4278302919
H       -0.1551764419    0.0932019353   -2.4852932092
H       -1.8136651263   -1.7608314612   -2.5813554933
H       -2.4591017247   -1.2761613862   -1.0208540754
H        4.1713454321   -1.7530318415   -0.4293544973
H        4.2092664972   -0.4849871505   -1.6727926604
H        3.0705616979   -1.8381177579   -1.8253961628
H        4.1876266555   -5.9981619671    2.6727734678
H       -1.9300006729    3.8529600431    2.3563884452
39   

C        1.2328227637   -4.4941264463   -0.1466947228
C        2.3004984512   -2.9773206543    1.3808372077
C        0.5750315853    1.1352128311    1.3882656447
C        1.9783738598   -5.5501026629    0.3904403896
C        3.0309242765   -4.0412915122    1.9247062394
C       -0.2764495972    2.1624761068    1.8049136392
C       -1.6231282140    1.8233874575   -0.1532539484
C        1.3858341377   -3.1731453790    0.3259750866
C        0.3353305214    0.4385907375    0.1909970322
C       -0.7787118514    0.7860804930   -0.5837373788
C        2.8800008364   -5.3346284025    1.4272478078
C       -1.3835671369    2.5121424791    1.0346641252
C       -0.5981906502   -2.2933902242   -0.8787078232
C        0.6284346029   -2.0337317552   -0.2685954759
C        1.2152580444   -0.6581268831   -0.2331263238
C        2.5530117694   -0.4385905814   -0.2165196383
C       -1.0428159140    0.0643764144   -1.8752626705
C       -1.5467928301   -1.3457580980   -1.5867547061
C        3.5873489972   -1.1159534348   -1.0760158063
O        3.5993501851   -6.3740592472    1.9412242577
O       -2.2230596947    3.5097582038    1.4358585408
H        0.5767926211   -4.7209958508   -0.9768701321
H        2.4295796434   -1.9939923887    1.8150668687
H        1.4214758493    0.8655249980    2.0090357610
H        1.8674000851   -6.5514324907   -0.0074198415
H        3.7145140309   -3.8486043980    2.7415827541
H       -0.0697241125    2.6788265907    2.7340498709
H       -2.4870257911    2.1046777892   -0.7419913979
H       -0.9740514892   -3.3065808805   -0.8382916142
H        2.8710740315    0.5352510597    0.1377325468
H       -1.8007404738    0.6048248819   -2.4506457232
H       -0.1349463812    0.0242984930   -2.4854277770
H       -1.8241488122   -1.8082916194   -2.5389218524
H       -2.4637443365   -1.2734681534   -0.9923143656
H        4.2066434465   -1.7812277122   -0.4674673763
H        4.2317589391   -0.3688217346   -1.5484783453
H        3.1045826984   -1.7066284138   -1.8607439774
H        4.1759338208   -6.0673494514    2.6605647435
H       -1.9322845650    3.8722269763    2.2895171613
39   

C        1.1950865214   -4.5107840900   -0.1146970917
C        2.2625134961   -3.0192372317    1.4370924947
C        0.5598724595    1.1496627146    1.3527962235
C        1.9416452035   -5.5752872556    0.4035587553
C        2.9940352048   -4.0920005445    1.9622534463
C       -0.2840678676    2.1972380945    1.7316232192
C       -1.6002682978    1.8327955519   -0.2408525280
C        1.3491973672   -3.1970042179    0.3775787170
C        0.3369998891    0.4311749773    0.1630500240
C       -0.7637068928    0.7739397512   -0.6333314524
C        2.8449580172   -5.3765604381    1.4420307532
C       -1.3709346302    2.5461204138    0.9339986164
C       -0.6354783191   -2.3082538202   -0.8120692303
C        0.5981732881   -2.0510091620   -0.2145758759
C        1.2123121637   -0.6873709240   -0.2253971645
C        2.5565712203   -0.5052566544   -0.1067887229
C       -1.0327593804    0.0139155559   -1.9003230906
C       -1.5682496014   -1.3709657091   -1.5535704003
C        3.6218125278   -1.0369009739   -1.0329322893
O        3.5680509031   -6.4234317836    1.9352555590
O       -2.2030694491    3.5637696350    1.2985102089
H        0.5398095907   -4.7227134099   -0.9496273046
H        2.3894706194   -2.0447712747    1.8910300516
H        1.3853923696    0.8831694542    2.0021372451
H        1.8316997727   -6.5694825436   -0.0120770965
H        3.6776447761   -3.9130155069    2.7822003817
H       -0.0876470812    2.7294252658    2.6540643979
H       -2.4526932120    2.1096784889   -0.8480801947
H       -1.0238305629   -3.3153754992   -0.7415089057
H        2.8702377695    0.4265978519    0.3480790562
H       -1.7774142715    0.5470985443   -2.4993049751
H       -0.1228478711   -0.0692497058   -2.5029774739
H       -1.8591125038   -1.8657617780   -2.4852372498
H       -2.4810954752   -1.2549842717   -0.9596022270
H        4.2443817734   -1.7670543122   -0.5077596710
H        4.2563973343   -0.2200921771   -1.3890215869
H        3.1628542855   -1.5268523480   -1.8971586994
H        4.1527591244   -6.1266333919    2.6521681577
H       -1.9211878282    3.9417624397    2.1484366962
39   

C        1.1581122935   -4.5244976244   -0.0989967656
C        2.2358473279   -3.0532314765    1.4646106761
C        0.5523241474    1.1533823175    1.3133843767
C        1.9050207578   -5.5965400228    0.4025350580
C        2.9678848546   -4.1337933774    1.9732589978
C       -0.2838720666    2.2166921439    1.6636544039
C       -1.5759480141    1.8370181732   -0.3198107094
C        1.3187094327   -3.2161897441    0.4058706508
C        0.3433836624    0.4202509989    0.1277431403
C       -0.7474380172    0.7615232106   -0.6838442317
C        2.8148460647   -5.4116101280    1.4376655507
C       -1.3533378297    2.5675612208    0.8450841758
C       -0.6673880812   -2.3173288796   -0.7672483303
C        0.5744903895   -2.0642095352   -0.1846221240
C        1.2136119653   -0.7142019865   -0.2399069068
C        2.5614861687   -0.5563703900   -0.0514792858
C       -1.0249000122   -0.0274266018   -1.9301342218
C       -1.5867852416   -1.3889468665   -1.5359406356
C        3.6721392449   -0.8851878383   -1.0220480445
O        3.5408708117   -6.4650500355    1.9122650313
O       -2.1775787267    3.6009428397    1.1822213908
H        0.4993548797   -4.7242245144   -0.9343923948
H        2.3660513353   -2.0853390354    1.9310869405
H        1.3568280197    0.8898765646    1.9889289682
H        1.7916298017   -6.5852038733   -0.0252093435
H        3.6558767390   -3.9661719497    2.7919168399
H       -0.0953669766    2.7590600285    2.5818412745
H       -2.4192976364    2.1116790278   -0.9405286411
H       -1.0684737294   -3.3172564388   -0.6678052416
H        2.8720326035    0.2667884328    0.5785065766
H       -1.7595404954    0.5002923457   -2.5460553799
H       -0.1155642615   -0.1463188998   -2.5275626552
H       -1.8903278004   -1.9092021558   -2.4494774555
H       -2.4950333972   -1.2362032363   -0.9431159390
H        4.5724913801   -0.3113383174   -0.7837850346
H        3.3603046924   -0.6448579804   -2.0427354800
H        3.9090065383   -1.9520203983   -0.9698547075
H        4.1378016390   -6.1759418914    2.6221853156
H       -1.9011287693    3.9901634228    2.0288846356
39   

C        1.1030236584   -4.5608004824   -0.0371780278
C        2.2271044127   -3.0719785413    1.4759680199
C        0.5830391519    1.1272156335    1.2545001369
C        1.8334687593   -5.6346754126    0.4841435672
C        2.9428136452   -4.1539723936    2.0047616042
C       -0.2490064827    2.1964735856    1.5954051532
C       -1.5335154573    1.8136331678   -0.3910403149
C        1.2952240477   -3.2431004695    0.4315688546
C        0.3784521503    0.3885580491    0.0697844119
C       -0.7099518627    0.7307826681   -0.7450309019
C        2.7583078821   -5.4417949943    1.5042298700
C       -1.3119759004    2.5495331672    0.7704027558
C       -0.6803813062   -2.3379585554   -0.7548877892
C        0.5689595267   -2.0927535384   -0.1840229951
C        1.2388453049   -0.7599312932   -0.2887327245
C        2.5933197107   -0.6050998287   -0.0853803012
C       -0.9966758981   -0.0733952535   -1.9785818231
C       -1.5805064914   -1.4171560611   -1.5555614184
C        3.7405458128   -0.6805706979   -1.0726426627
O        3.4684195997   -6.4972715285    1.9980450207
O       -2.1330479820    3.5877130774    1.1004030531
H        0.4320085065   -4.7690694341   -0.8606307769
H        2.3815571268   -2.0964844288    1.9177731616
H        1.3757835075    0.8658243829    1.9437470316
H        1.6955699971   -6.6314111241    0.0831616612
H        3.6429994314   -3.9796548478    2.8115820074
H       -0.0630798449    2.7406985081    2.5130718857
H       -2.3745772529    2.0875377306   -1.0151185966
H       -1.1035019499   -3.3244842532   -0.6193622656
H        2.8776487021    0.0951746100    0.6872829093
H       -1.7220438459    0.4541223957   -2.6055421649
H       -0.0880988688   -0.2183338029   -2.5713279398
H       -1.8847028828   -1.9559599221   -2.4580246423
H       -2.4908211490   -1.2370094807   -0.9736374500
H        4.5895107744   -0.0853399857   -0.7232953449
H        3.4198270174   -0.3000562274   -2.0469558451
H        4.0612265460   -1.7200310252   -1.1895525064
H        4.0822005459   -6.2015971606    2.6906537305
H       -1.8611840725    3.9755759194    1.9492229510
