39   

C        2.6418317179   -0.4562293194    1.0319762018
C        1.3827129056   -0.9359428687    1.4559287243
C        2.7321175715    0.5501710321    0.0486363837
C       -0.1243247899    2.1194958763   -1.6123084028
C        0.3544118683    0.5715752498   -0.0696781760
C        0.2030781106   -0.4074194744    0.8989603321
C       -0.7134466760    1.2222233852   -0.7545034917
C        1.5569922512    1.0606073761   -0.5018021056
C       -1.3298552714   -2.2499502124    1.7645543328
C       -2.3825657787   -2.8596931459    2.3936589796
C       -2.1415527562    0.8340219371   -0.4655075054
C       -1.2119868786   -0.8221075639    1.2718450525
C       -2.1821124624   -0.6236307874    0.0666429727
C       -2.6021736198   -2.9116194169    3.8950822029
C       -2.8563292189   -1.9002692189   -1.9912664334
C       -3.1008365043   -3.9249214028    1.6017641361
N        1.2814539728    2.0350782235   -1.4682396638
N       -1.8102581047   -1.5542108861   -1.0206595124
O       -4.4223650411   -3.4821642487    1.2892140196
H        3.5464830729   -0.8627090055    1.4691568527
H        1.3291786444   -1.7039895621    2.2181113645
H        3.6950033057    0.9235286630   -0.2756556344
H       -0.6644404877    2.7753810991   -2.2879834080
H       -0.7317301809   -2.9076840413    1.1431802151
H       -2.5417973092    1.5086714181    0.2969407219
H       -2.7582797392    0.9337538225   -1.3627792756
H       -1.5393810771   -0.1627314324    2.0811916943
H       -3.2011749645   -0.8554583338    0.3942337215
H       -3.4401358066   -3.5679047961    4.1496986778
H       -1.7005091325   -3.2804320291    4.3926309650
H       -2.8248575602   -1.9083623748    4.2697673099
H       -3.7275190195   -2.3135593340   -1.4725731557
H       -3.1670999819   -1.0183849955   -2.5592352100
H       -2.4805782242   -2.6529138151   -2.6911477191
H       -2.5576735738   -4.1517780796    0.6784061625
H       -3.1571632112   -4.8478358359    2.1882124561
H        1.9788026966    2.5805071674   -1.9654413143
H       -0.9278587585   -1.2648437491   -1.4437967030
H       -4.8788279802   -4.1356686928    0.7311557186
39   

C        2.6483997965   -0.5602103080    1.0497540715
C        1.3860082210   -1.0620539533    1.4374505321
C        2.7472755663    0.4814632255    0.1045003205
C       -0.0940262552    2.0887980126   -1.5462574359
C        0.3720912593    0.4923789998   -0.0499730059
C        0.2119524125   -0.5198224922    0.8823754138
C       -0.6894510856    1.1575905858   -0.7300781916
C        1.5775729348    1.0040259175   -0.4458905483
C       -1.3188092519   -2.3820165353    1.6981444026
C       -2.2990758035   -2.9050351691    2.4824359463
C       -2.1180175503    0.7460764408   -0.4800337708
C       -1.2067046550   -0.9519097501    1.2189354489
C       -2.1538862870   -0.7313280529   -0.0008885763
C       -2.4223235399   -2.6646791710    3.9762530122
C       -2.7183229835   -1.8614872865   -2.1804608877
C       -2.9534582537   -4.1671314931    1.9760590318
N        1.3098151510    2.0100077495   -1.3818623726
N       -1.7468020826   -1.6283827258   -1.1034665556
O       -4.3554482458   -4.1391133403    2.2548963162
H        3.5490509106   -0.9768343569    1.4856446837
H        1.3258566721   -1.8574142496    2.1706134567
H        3.7125107810    0.8719447291   -0.1914916567
H       -0.6284089482    2.7632611206   -2.2081166020
H       -0.8471444902   -3.0679730662    1.0023190768
H       -2.5368265999    1.3889010977    0.2998368469
H       -2.7215530702    0.8764720806   -1.3820519073
H       -1.5554233670   -0.3046497172    2.0294322720
H       -3.1771993301   -0.9835649575    0.2967813773
H       -3.3517990449   -2.1289413512    4.1899045441
H       -2.4305419266   -3.6135992405    4.5208082888
H       -1.5813908255   -2.0643622677    4.3359888733
H       -3.6667616377   -2.2159118786   -1.7641334149
H       -2.8994232240   -0.9428624244   -2.7464973029
H       -2.3350872233   -2.6218078548   -2.8679390747
H       -2.7959146450   -4.2744475854    0.8977885550
H       -2.5031771840   -5.0329866880    2.4723069812
H        2.0105669634    2.5780734231   -1.8480571818
H       -0.8210568469   -1.3623097182   -1.4417996747
H       -4.7910343219   -4.9411899457    1.9167572564
39   

C        2.5940374893   -0.6402021301    1.0611534972
C        1.3233021884   -1.1538312686    1.4038677802
C        2.7131890528    0.4417463240    0.1645917099
C       -0.0928602573    2.1291881744   -1.4666186960
C        0.3414807223    0.4682497393   -0.0320748326
C        0.1613685664   -0.5828678584    0.8525577746
C       -0.7055104248    1.1653348001   -0.7028575314
C        1.5553235960    0.9923386632   -0.3834386797
C       -1.3907018844   -2.4670903901    1.5668884032
C       -2.2811056935   -2.9539356378    2.4610008752
C       -2.1392217388    0.7466962092   -0.4990274197
C       -1.2645337578   -1.0226559948    1.1442841531
C       -2.1860549596   -0.7500290026   -0.0847867145
C       -2.3619495455   -2.5104929690    3.9082778400
C       -2.7098891721   -1.7813633542   -2.3229238538
C       -2.8873813902   -4.3013735237    2.1528484770
N        1.3074348306    2.0389901553   -1.2795583881
N       -1.7598585922   -1.5995691892   -1.2171273848
O       -4.2773716030   -4.2986939330    2.4877431447
H        3.4854489334   -1.0791748050    1.4940410174
H        1.2470338228   -1.9808130658    2.0995883844
H        3.6847623445    0.8411169951   -0.0967582638
H       -0.6132426827    2.8329388497   -2.1088703602
H       -1.0149734537   -3.1563050263    0.8179948266
H       -2.5724552004    1.3562810448    0.2994531996
H       -2.7247836620    0.9172621728   -1.4061703382
H       -1.6284737193   -0.4010333807    1.9679742720
H       -3.2153698413   -1.0120877184    0.1820886584
H       -3.2956015701   -1.9660733030    4.0771662170
H       -2.3338736896   -3.3748439021    4.5785271976
H       -1.5226001237   -1.8535423580    4.1552507366
H       -3.6679941035   -2.1493155039   -1.9419568431
H       -2.8761357071   -0.8382690974   -2.8520565202
H       -2.3153514662   -2.5128313861   -3.0348648628
H       -2.7670824247   -4.5449067685    1.0922399973
H       -2.3753258283   -5.0719988371    2.7380974650
H        2.0180795044    2.6242968209   -1.7079030665
H       -0.8262540646   -1.3235232736   -1.5245487212
H       -4.6866456463   -5.1561038740    2.2760715935
39   

C        2.5426216536   -0.7219960979    1.1327407523
C        1.2573747771   -1.2350643615    1.4174954538
C        2.6992902874    0.3888451851    0.2782266745
C       -0.0390316741    2.1555709571   -1.3837795896
C        0.3354820822    0.4442355703    0.0078996268
C        0.1183167937   -0.6346386800    0.8499985563
C       -0.6835007478    1.1720526011   -0.6731927780
C        1.5641320623    0.9687208608   -0.2867150071
C       -1.4668023473   -2.5245908052    1.4537128684
C       -2.2368302741   -3.0125051598    2.4468744369
C       -2.1257058982    0.7575434840   -0.5318939851
C       -1.3198745328   -1.0719563784    1.0790533934
C       -2.1951176148   -0.7527836006   -0.1728839912
C       -2.3073527933   -2.4247833821    3.8392619565
C       -2.6418754054   -1.6878643522   -2.4696823740
C       -2.7584178983   -4.4204191563    2.2880357698
N        1.3536290511    2.0470466309   -1.1544597869
N       -1.7362369155   -1.5655909093   -1.3191792793
O       -4.1190253106   -4.4891145542    2.7227082492
H        3.4161940243   -1.1842469307    1.5775705666
H        1.1521522930   -2.0851845590    2.0808108832
H        3.6819934399    0.7874528013    0.0610564109
H       -0.5327716378    2.8843731572   -2.0191034094
H       -1.1757732048   -3.2106052945    0.6653190645
H       -2.5812690884    1.3417853083    0.2731102435
H       -2.6799289930    0.9649439102   -1.4509374235
H       -1.7095273464   -0.4671126139    1.9030620470
H       -3.2347105407   -1.0160260433    0.0491259377
H       -3.2550694523   -1.8943725896    3.9701073934
H       -2.2416165107   -3.2146151055    4.5936154366
H       -1.4840710710   -1.7235391719    4.0048822291
H       -3.6235610427   -2.0453657497   -2.1426171621
H       -2.7639810026   -0.7239601018   -2.9727356716
H       -2.2334711712   -2.4041367968   -3.1891893199
H       -2.6936345439   -4.7408369348    1.2432303264
H       -2.1500458954   -5.1026116515    2.8904436505
H        2.0823625420    2.6397399664   -1.5401341565
H       -0.7865530527   -1.2940136022   -1.5776206078
H       -4.4765755665   -5.3868220194    2.6053090022
39   

C        2.4342899443   -0.8426017202    1.2746358326
C        1.1258851644   -1.3362707275    1.4759882948
C        2.6584367783    0.2867008320    0.4603638929
C        0.0495512752    2.1497377877   -1.3013525682
C        0.3142864482    0.3979210138    0.0651855682
C        0.0306823154   -0.6977390213    0.8651226729
C       -0.6513383438    1.1620058658   -0.6527849155
C        1.5669772218    0.9043925123   -0.1486971096
C       -1.6136030534   -2.5713239554    1.3361124561
C       -2.1711798346   -3.0643541869    2.4555106373
C       -2.1058210750    0.7709228825   -0.6039726037
C       -1.4258733744   -1.1143260144    1.0000419385
C       -2.2200575496   -0.7475707862   -0.2931336405
C       -2.1338312311   -2.3903931638    3.8073593357
C       -2.5489231221   -1.6008435094   -2.6412666881
C       -2.6316846596   -4.5028667022    2.4273415612
N        1.4250061096    2.0079630761   -0.9984760292
N       -1.7121422407   -1.5366276385   -1.4350686538
O       -3.8923356732   -4.6308078501    3.0909023431
H        3.2734837120   -1.3349850953    1.7520870309
H        0.9690804809   -2.2023543410    2.1077159265
H        3.6590401131    0.6698846913    0.3063801595
H       -0.3944799353    2.9030183278   -1.9447659223
H       -1.4952778827   -3.2501869601    0.4983749837
H       -2.5956440625    1.3408794319    0.1911321311
H       -2.6042514780    1.0145843061   -1.5457581141
H       -1.8559576215   -0.5175323679    1.8094833226
H       -3.2751068554   -0.9968733054   -0.1382258095
H       -3.0812729834   -1.8756267421    3.9918570257
H       -1.9773351225   -3.1284900746    4.5998546356
H       -1.3187393620   -1.6623215274    3.8563324592
H       -3.5580972644   -1.9389234959   -2.3847570308
H       -2.6141606650   -0.6202321318   -3.1221363155
H       -2.1168961612   -2.3081608258   -3.3557851775
H       -2.7289754771   -4.8572533259    1.3961894939
H       -1.8898229371   -5.1297707473    2.9322130138
H        2.1850391571    2.5946959669   -1.3288945714
H       -0.7421611335   -1.2820592630   -1.6274370986
H       -4.2082165590   -5.5511713196    3.0641007141
39   

C        2.2261016180   -0.8838080780    1.3125485255
C        0.9044645326   -1.3609133744    1.4583031068
C        2.4955580839    0.2559998832    0.5278080052
C       -0.0192359671    2.1837292520   -1.2985042957
C        0.1685100531    0.4092695052    0.0516141149
C       -0.1606798016   -0.6941246691    0.8232539024
C       -0.7579300807    1.1970285133   -0.6915559787
C        1.4356488714    0.8997329279   -0.1089319162
C       -1.8506844037   -2.5446924085    1.2229462401
C       -2.1322027259   -3.0578817331    2.4311177208
C       -2.2177218473    0.8244572902   -0.7064557017
C       -1.6292546273   -1.0894833980    0.8992217976
C       -2.3644693381   -0.6966838114   -0.4211789153
C       -1.9683770886   -2.3294844042    3.7428514317
C       -2.5935042107   -1.4989434360   -2.7999190892
C       -2.4969906912   -4.5229601683    2.4998700635
N        1.3415342236    2.0178696626   -0.9460073438
N       -1.8214906308   -1.4815181418   -1.5496791532
O       -3.5940631310   -4.7230182134    3.3960723553
H        3.0403908815   -1.3979858254    1.8097643491
H        0.7163144128   -2.2375476595    2.0661324536
H        3.5065749190    0.6262606562    0.4160443726
H       -0.4276527231    2.9517696673   -1.9479944297
H       -1.9215755081   -3.2095625274    0.3688317216
H       -2.7316449584    1.3905751845    0.0760806089
H       -2.6747924436    1.0877376380   -1.6637781392
H       -2.0833079998   -0.4922819500    1.6953394849
H       -3.4284696492   -0.9319535781   -0.3128245861
H       -2.9224860257   -1.8862113428    4.0426842736
H       -1.6440538784   -3.0212382495    4.5261962504
H       -1.2192575368   -1.5366876641    3.6632737918
H       -3.6275658739   -1.7997129499   -2.6030744696
H       -2.5939270673   -0.5110914426   -3.2703311006
H       -2.1508188369   -2.2143298096   -3.4997251979
H       -2.7704902173   -4.8992946741    1.5090107838
H       -1.6315313031   -5.0939094370    2.8507355357
H        2.1219417603    2.5975995040   -1.2391996680
H       -0.8353584546   -1.2540801521   -1.6863739037
H       -3.8473478602   -5.6622116604    3.4330217701
39   

C        2.1666411078   -0.9302707098    1.3308561819
C        0.8337921712   -1.3771743839    1.4683102693
C        2.4684618547    0.1936978332    0.5356648472
C        0.0153106581    2.1516351418   -1.3406441874
C        0.1498109054    0.3906994568    0.0333531066
C       -0.2114440747   -0.6958612059    0.8146134480
C       -0.7511335629    1.1887575157   -0.7297062366
C        1.4290254586    0.8517893156   -0.1196111976
C       -1.9442422094   -2.5047657551    1.2187223705
C       -2.0847103866   -3.0252741850    2.4480079235
C       -2.2182598425    0.8472318400   -0.7565228927
C       -1.6899643422   -1.0594451153    0.8787740914
C       -2.4011158027   -0.6669758869   -0.4549010026
C       -2.0129041052   -2.2471997726    3.7383104210
C       -2.6161400945   -1.4891614372   -2.8282787815
C       -2.3034902116   -4.5178045968    2.5533872498
N        1.3682811303    1.9610657276   -0.9712100569
N       -1.8621102075   -1.4774173457   -1.5670280698
O       -3.3464572438   -4.8093386183    3.4887531903
H        2.9644520099   -1.4558836838    1.8426512955
H        0.6235757711   -2.2424995410    2.0846761368
H        3.4883380801    0.5407318739    0.4300533663
H       -0.3691774195    2.9199592300   -2.0042163584
H       -2.0550636908   -3.1755144613    0.3735180707
H       -2.7283623885    1.4337694733    0.0133616214
H       -2.6589170811    1.1088087780   -1.7219645518
H       -2.1410474713   -0.4433011197    1.6618731587
H       -3.4711677366   -0.8778566458   -0.3565649116
H       -3.0055088041   -1.8685459640    3.9992179310
H       -1.6588194020   -2.8869248720    4.5524255797
H       -1.3223190355   -1.4036326338    3.6525284078
H       -3.6608343457   -1.7591228257   -2.6432961450
H       -2.5825048016   -0.5075091016   -3.3103445160
H       -2.1831210098   -2.2248378503   -3.5129278823
H       -2.5715079244   -4.9381803558    1.5788955679
H       -1.3751678133   -4.9955818218    2.8818675731
H        2.1643426832    2.5198421713   -1.2630148781
H       -0.8687245320   -1.2761730007   -1.6918783934
H       -3.5073551605   -5.7677631373    3.5446217274
39   

C        2.1522003935   -1.0043605120    1.3605118331
C        0.8113323900   -1.4225519288    1.5093054805
C        2.4724985176    0.1051356941    0.5524708798
C        0.0490130106    2.0981655374   -1.3252987695
C        0.1554172657    0.3448550297    0.0607246636
C       -0.2233425037   -0.7280777473    0.8523600503
C       -0.7335973854    1.1561771269   -0.7023048499
C        1.4429334289    0.7785213470   -0.1028736433
C       -1.9801523035   -2.5057105160    1.2663147242
C       -2.0703956355   -3.0376041043    2.4969322104
C       -2.2079864063    0.8462404162   -0.7153837258
C       -1.7077695713   -1.0651672915    0.9235937640
C       -2.4201197525   -0.6626552761   -0.4065538824
C       -2.2329525656   -2.2585620071    3.7783441956
C       -2.6763229044   -1.4904245665   -2.7731543477
C       -2.1004603794   -4.5467288673    2.6013690283
N        1.4000815072    1.8819043057   -0.9630712070
N       -1.9065792872   -1.4857622536   -1.5213176965
O       -3.1687098851   -4.9749214898    3.4522473177
H        2.9418507651   -1.5409295482    1.8736103132
H        0.5874259948   -2.2761546081    2.1369514308
H        3.4986821313    0.4300700291    0.4380050166
H       -0.3235292516    2.8699547573   -1.9916421903
H       -2.0361836065   -3.1827388889    0.4207707470
H       -2.6987896143    1.4463358722    0.0565976616
H       -2.6510793993    1.1137525608   -1.6780788289
H       -2.1435642469   -0.4403592129    1.7080459854
H       -3.4934484469   -0.8515257471   -0.2995829609
H       -3.2791984532   -1.9655931331    3.9055529210
H       -1.9323975199   -2.8634883788    4.6392430725
H       -1.6089658096   -1.3605034096    3.7697796500
H       -3.7226146100   -1.7438386802   -2.5741932940
H       -2.6341124722   -0.5109974980   -3.2590657365
H       -2.2631880638   -2.2349002146   -3.4605420401
H       -2.2310767317   -5.0000609039    1.6136563370
H       -1.1468949165   -4.8984464016    3.0073669257
H        2.2058381530    2.4216326785   -1.2639990649
H       -0.9117791796   -1.3005881930   -1.6587766083
H       -3.2073859647   -5.9462727650    3.5026223700
39   

C        2.1967030190   -1.0598513375    1.2909432525
C        0.8540683164   -1.4548890769    1.4808091936
C        2.5111562680    0.0416198312    0.4696748645
C        0.0652659004    2.0725911535   -1.3375892294
C        0.1846462435    0.3190467751    0.0463145497
C       -0.1875588234   -0.7459347781    0.8509368650
C       -0.7139656641    1.1447693805   -0.6893842949
C        1.4737451179    0.7307945611   -0.1565905964
C       -1.9425931986   -2.5022902916    1.3089161979
C       -2.0738799062   -3.0293370314    2.5407563847
C       -2.1935995595    0.8606635024   -0.6537151590
C       -1.6734229624   -1.0608965791    0.9666018944
C       -2.4223080504   -0.6446811502   -0.3384668997
C       -2.6049840736   -2.2953336437    3.7477466576
C       -2.7748152664   -1.4695742477   -2.6928327368
C       -1.8638705274   -4.5216855047    2.6825834239
N        1.4231356605    1.8334765534   -1.0171341493
N       -1.9586996019   -1.4733510416   -1.4707173995
O       -2.9739743323   -5.1322652838    3.3489865184
H        2.9921707782   -1.6076547075    1.7827803730
H        0.6335158431   -2.3013749140    2.1193400118
H        3.5387812482    0.3490092163    0.3239023543
H       -0.3143188422    2.8506486553   -1.9925478442
H       -1.8354757074   -3.1903015179    0.4772447783
H       -2.6479327913    1.4687204054    0.1341905301
H       -2.6632840326    1.1368043714   -1.6012513705
H       -2.0715802757   -0.4343484458    1.7687623151
H       -3.4944632656   -0.8163265648   -0.1965755718
H       -3.6809215123   -2.1303781303    3.6393836827
H       -2.4300720761   -2.8702070501    4.6622292579
H       -2.1053208631   -1.3298866124    3.8641891839
H       -3.8151152095   -1.7139755768   -2.4549689940
H       -2.7423130059   -0.4898545026   -3.1789201360
H       -2.3944217483   -2.2167057492   -3.3960358693
H       -1.7414314107   -4.9895312038    1.7006074109
H       -0.9487016356   -4.7036130287    3.2544719309
H        2.2283219178    2.3592408457   -1.3432971157
H       -0.9680323586   -1.2981679959   -1.6453955456
H       -2.8543905526   -6.0958821880    3.4171257995
39   

C        2.1865282970   -1.1118326764    1.2496511916
C        0.8389845043   -1.4769476338    1.4620227599
C        2.5113451922   -0.0192237549    0.4210102153
C        0.0810548415    2.0639905985   -1.3468311444
C        0.1843656326    0.3085701617    0.0355781095
C       -0.1978148514   -0.7470773563    0.8474543287
C       -0.7079640365    1.1545241722   -0.6843618258
C        1.4788710089    0.6913935630   -0.1892307068
C       -1.9770027743   -2.4691555298    1.3323553364
C       -2.0797837011   -2.9874852109    2.5749779914
C       -2.1931481959    0.9054809492   -0.6203806381
C       -1.6884928809   -1.0296828515    0.9891838350
C       -2.4524188169   -0.5939770878   -0.3002260148
C       -2.8481250033   -2.3492850222    3.7085449080
C       -2.8665270860   -1.4103259201   -2.6475591809
C       -1.6614983509   -4.4309187988    2.7595510976
N        1.4385519296    1.7941509182   -1.0499562556
N       -2.0288009725   -1.4330295492   -1.4403972054
O       -2.7172105247   -5.2005557730    3.3452622309
H        2.9777067997   -1.6756566563    1.7302307869
H        0.6121228072   -2.3164796274    2.1070851841
H        3.5429392790    0.2654889326    0.2581684860
H       -0.2918127702    2.8507484746   -1.9951793696
H       -1.7949584829   -3.1591503397    0.5153994062
H       -2.6177074479    1.5242818510    0.1757001791
H       -2.6737978444    1.1929017785   -1.5590215394
H       -2.0544503088   -0.4008331533    1.8049168559
H       -3.5254208064   -0.7406593252   -0.1383618944
H       -3.9195482545   -2.3683823765    3.4884176150
H       -2.6743030559   -2.8823567190    4.6482657955
H       -2.5336033158   -1.3121720588    3.8518116575
H       -3.9077740661   -1.6304005024   -2.3908983448
H       -2.8198716500   -0.4316591386   -3.1346283085
H       -2.5163083346   -2.1661357516   -3.3571418228
H       -1.3916918093   -4.8791456362    1.7980422555
H       -0.7779819912   -4.4705092482    3.4040160316
H        2.2498201787    2.3013855120   -1.3901291329
H       -1.0378063060   -1.2806950156   -1.6333918429
H       -2.4617980715   -6.1356035797    3.4341498329
39   

C        2.1429677265   -1.1426896189    1.2569954819
C        0.7862294249   -1.4679053612    1.4740365267
C        2.4966655317   -0.0610338402    0.4265796845
C        0.1231015646    2.0936419564   -1.3311041665
C        0.1782999756    0.3346264729    0.0496082634
C       -0.2323906699   -0.7096031722    0.8625910843
C       -0.6906077836    1.2082487642   -0.6657108717
C        1.4830111331    0.6789398523   -0.1798927245
C       -2.0664728464   -2.3818022609    1.3527607826
C       -2.1058579612   -2.9123392617    2.5994998578
C       -2.1824524426    1.0059186750   -0.5942524420
C       -1.7315239564   -0.9484700837    1.0096575132
C       -2.4874068990   -0.4849998703   -0.2748855999
C       -3.0202441777   -2.4268648417    3.7029087284
C       -2.9344008050   -1.2837288898   -2.6227920168
C       -1.5083421382   -4.2929857107    2.7783270937
N        1.4729449858    1.7825160205   -1.0401216448
N       -2.0943466241   -1.3347153591   -1.4181435191
O       -2.4564778630   -5.1973776903    3.3562765206
H        2.9188294802   -1.7288273042    1.7359079884
H        0.5409906340   -2.2990649594    2.1219185254
H        3.5356049656    0.1933390149    0.2602435072
H       -0.2281134661    2.8921565787   -1.9771175486
H       -1.8838729338   -3.0665752806    0.5314947723
H       -2.5831868253    1.6366349438    0.2047920292
H       -2.6583852644    1.3097413297   -1.5301305089
H       -2.0739630744   -0.3163098727    1.8338125842
H       -3.5637625446   -0.5984763582   -0.1088317012
H       -4.0529456088   -2.7140590248    3.4832758647
H       -2.7313352194   -2.8588399150    4.6660810072
H       -2.9688224527   -1.3380867529    3.7902514455
H       -3.9814238921   -1.4705941416   -2.3633928218
H       -2.8575802258   -0.3065514043   -3.1090239273
H       -2.6105660395   -2.0496076592   -3.3341317463
H       -1.1822096327   -4.6967022240    1.8145097119
H       -0.6277874330   -4.2241866397    3.4242029058
H        2.2980177820    2.2650631249   -1.3830264596
H       -1.0996608762   -1.2134582221   -1.6142030225
H       -2.0859594912   -6.0943557681    3.4309280065
39   

C        2.1137917722   -1.1422480577    1.2666626824
C        0.7523997932   -1.4348608184    1.4983168263
C        2.4839385472   -0.0969782689    0.3989023490
C        0.1450129877    2.0456731383   -1.4162442441
C        0.1707608947    0.3281028106    0.0171193009
C       -0.2569184423   -0.6829228084    0.8635797680
C       -0.6831729217    1.1980370950   -0.7200926360
C        1.4811661616    0.6404833424   -0.2275486715
C       -2.1359685346   -2.3103071038    1.3994249545
C       -2.1105886607   -2.8590092058    2.6482842726
C       -2.1781787251    1.0312710201   -0.6333882009
C       -1.7615495494   -0.8922936853    1.0204140888
C       -2.5127202054   -0.4434882874   -0.2731336701
C       -3.1377547199   -2.5669604730    3.7235880448
C       -2.9873121913   -1.2914402658   -2.5991165041
C       -1.3421176930   -4.1553835043    2.8070572321
N        1.4895984868    1.7161579783   -1.1220049014
N       -2.1428853671   -1.3289298321   -1.3970356292
O       -2.1995073750   -5.2142896969    3.2485253680
H        2.8803998264   -1.7251998269    1.7640831744
H        0.5001845014   -2.2358670875    2.1781127120
H        3.5267215774    0.1326501280    0.2210404333
H       -0.1929701775    2.8316342831   -2.0842724997
H       -1.9895020077   -3.0031533337    0.5775929397
H       -2.5592351506    1.6913959129    0.1513634211
H       -2.6537154600    1.3208067825   -1.5739874579
H       -2.0908368502   -0.2382957093    1.8334434054
H       -3.5905338476   -0.5297082631   -0.1003617614
H       -4.1162224231   -2.9493095125    3.4175626841
H       -2.8565034636   -3.0336453994    4.6727710451
H       -3.2159275194   -1.4875336455    3.8823169402
H       -4.0370409058   -1.4475043014   -2.3304906396
H       -2.8906452977   -0.3297783100   -3.1119993145
H       -2.6841490883   -2.0834375730   -3.2907121022
H       -0.8874216605   -4.4471535348    1.8548290807
H       -0.5343347408   -4.0118253564    3.5309665359
H        2.3227845499    2.1707803207   -1.4829926523
H       -1.1467253434   -1.2342849391   -1.6001532081
H       -1.7142241795   -6.0554552152    3.3145073259
39   

C        2.0756688743   -1.0857542034    1.3672449753
C        0.7053407566   -1.3304652466    1.5997498740
C        2.4805304421   -0.1043458935    0.4437175374
C        0.2169716150    2.0034588635   -1.4994809159
C        0.1814222626    0.3544123263    0.0134108878
C       -0.2816614447   -0.6022176419    0.9052175731
C       -0.6402626334    1.2145208949   -0.7703044894
C        1.5022643240    0.6212204423   -0.2321246466
C       -2.2372253735   -2.1663169520    1.4674531238
C       -2.1432021567   -2.7817115859    2.6928457439
C       -2.1392600326    1.1019673379   -0.6824217133
C       -1.7951592211   -0.7739116733    1.0488081655
C       -2.5198479836   -0.3464714458   -0.2695572127
C       -3.2081754624   -2.7165210859    3.7733487859
C       -3.0110241910   -1.2625166643   -2.5670211566
C       -1.2591610787   -4.0121354829    2.7487657399
N        1.5489962696    1.6495703037   -1.1790976661
N       -2.1700339400   -1.2786229326   -1.3619660723
O       -2.0289132928   -5.1918317060    3.0094792340
H        2.8221118827   -1.6548469252    1.9094242171
H        0.4332283980   -2.0735422324    2.3323571612
H        3.5304451600    0.0893945578    0.2651544972
H       -0.0931745598    2.7678838062   -2.2049020082
H       -2.2529289651   -2.8571833900    0.6312360252
H       -2.5001123591    1.8025757581    0.0763375777
H       -2.6028115717    1.3716126782   -1.6348378811
H       -2.1193224979   -0.0848654914    1.8344566845
H       -3.6012200888   -0.3933634245   -0.1039020323
H       -4.1582527393   -3.0936627608    3.3831048903
H       -2.9246641577   -3.3095543133    4.6484693724
H       -3.3469596112   -1.6798501417    4.0934740401
H       -4.0649177400   -1.3817591518   -2.2957638653
H       -2.8887699333   -0.3227373833   -3.1138421189
H       -2.7273827162   -2.0865148631   -3.2288671617
H       -0.7348373482   -4.1427336043    1.7963472359
H       -0.5053216491   -3.8849253085    3.5315318509
H        2.3978574203    2.0624391734   -1.5534767421
H       -1.1709661588   -1.2186500960   -1.5641628385
H       -1.4660070912   -5.9859091235    3.0104831430
