51

C      0.70789   -8.75204    2.11541
C     -0.58336   -9.25230    2.05016
C      2.02227   -6.48325    1.84506
C     -1.52102   -7.07086    1.48617
C      0.89961   -7.37786    1.86781
C     -1.69853   -8.43170    1.73836
C     -0.22043   -6.58019    1.55652
C      1.52322   -5.24265    1.53142
C      2.16377   -3.93519    1.34691
C     -3.63696   -9.31212    3.13206
C     -5.90309   -9.48456    4.34944
C     -5.33604  -10.86321    4.29469
C      4.18520   -0.15193    2.46561
C      4.26169   -1.93085    4.23371
C      5.70316   -0.24508    2.19602
C      5.79524   -1.75905    4.17496
C      5.64681   -2.71986    1.88314
C     -5.01175   -9.87761    3.16970
C      3.66345   -1.54116    2.87239
C      4.11394   -2.55110    1.79005
C     -3.07790   -9.03386    1.72912
N      3.47214   -3.84818    1.84219
N      6.20073   -1.58355    2.72050
O      1.63350   -2.97813    0.79244
O     -2.99000   -9.08717    4.14519
O      0.16077   -5.28049    1.34525
H      1.54428   -9.40144    2.35781
H     -0.75697  -10.30522    2.25427
H      3.06273   -6.74077    2.00024
H     -2.35566   -6.41747    1.25038
H     -6.95705   -9.34103    4.13378
H     -5.46245   -8.78894    5.05616
H     -4.51437  -11.09455    4.96464
H     -5.99032  -11.69080    4.03973
H      3.98386    0.57431    3.25714
H      3.67449    0.19656    1.56541
H      4.00144   -2.96204    4.48730
H      3.85501   -1.30043    5.02742
H      5.94952   -0.21953    1.13284
H      6.27915    0.52975    2.70478
H      6.14352   -0.86873    4.70163
H      6.34149   -2.62304    4.55791
H      5.93574   -3.64695    2.38331
H      6.13402   -2.68651    0.90734
H     -5.49767  -10.04012    2.21211
H      2.57393   -1.53648    2.91190
H      3.84871   -2.12844    0.81930
H     -3.79159   -8.38453    1.20887
H     -3.08803   -9.98569    1.18203
H      3.71553   -4.47894    2.59689
H      7.22209   -1.59945    2.65996
