51

C      2.37312   -8.39839    2.62900
C      1.31041   -9.25823    2.37629
C      3.01856   -5.85365    2.44386
C     -0.09144   -7.45324    1.52018
C      2.20672   -7.03426    2.32859
C      0.08502   -8.80784    1.82621
C      0.97636   -6.60790    1.78469
C      2.25659   -4.81730    1.98414
C      2.55431   -3.39164    1.86715
C     -2.33412   -9.49009    2.35247
C     -4.79727  -10.25338    2.44971
C     -4.13802  -10.74776    3.69245
C      0.95924    0.85775   -0.04562
C     -0.41427   -0.28907    1.71833
C      1.75506    1.64678    1.01825
C      0.24639    0.66332    2.73916
C      2.41612   -0.44434    2.20726
C     -3.31075  -10.60887    2.40970
C      0.54659   -0.50590    0.53539
C      1.81439   -1.23507    1.01509
C     -1.03247   -9.79096    1.59393
N      1.51086   -2.59841    1.41781
N      1.68784    0.88606    2.32626
O      3.64426   -2.89631    2.17114
O     -2.56187   -8.39574    2.85076
O      1.00044   -5.24634    1.57043
H      3.30269   -8.77064    3.04934
H      1.41916  -10.31427    2.60882
H      4.03048   -5.76489    2.81647
H     -1.02702   -7.07922    1.12026
H     -5.46733  -10.91663    1.91201
H     -5.02603   -9.19431    2.39091
H     -3.92021  -10.02230    4.46937
H     -4.34041  -11.75928    4.02952
H      0.06873    1.41659   -0.34300
H      1.57304    0.72485   -0.93936
H     -0.64914   -1.24214    2.19570
H     -1.35323    0.14337    1.36574
H      2.81322    1.74379    0.76911
H      1.34878    2.64290    1.20199
H     -0.22633    1.64676    2.77266
H      0.26591    0.25144    3.74930
H      2.27569   -0.96897    3.15093
H      3.47649   -0.23450    2.07678
H     -3.03117  -11.52705    1.90217
H      0.05497   -1.09669   -0.24206
H      2.55278   -1.24101    0.20373
H     -1.30985   -9.82199    0.53025
H     -0.71071  -10.80700    1.84200
H      0.73951   -3.07408    0.96059
H      2.15332    1.43925    3.05045
