43

C      3.40085   -6.67854   -0.28582
C      4.22809   -7.18011   -2.49937
C      3.22662   -5.34468   -0.65450
C      4.05423   -5.84713   -2.86059
C      6.42304   -1.42490   -2.07316
C      5.46894   -2.02751   -2.86434
C      5.12154   -2.48651   -0.73376
C      3.90442   -7.61374   -1.20368
C      3.55401   -4.90941   -1.94560
C      4.10928   -9.05819   -0.85709
C     -0.41677   -1.29185   -2.32553
C     -0.39529   -2.76340   -1.89254
C      0.84357   -0.55883   -1.84848
C      0.88565   -3.47101   -2.35606
C      2.12252   -1.26794   -2.31391
C      2.14869   -2.74007   -1.86909
C      3.77874   -9.52526    0.54926
C      3.42270   -3.45280   -2.36855
N      6.19723   -1.71823   -0.74412
N      4.63680   -2.71009   -1.99579
O      4.53678   -9.84570   -1.69352
H      3.13832   -6.98351    0.72246
H      4.61492   -7.90761   -3.20615
H      2.82387   -4.64562    0.07259
H      4.31433   -5.52455   -3.86643
H      7.25405   -0.80468   -2.38387
H      5.30199   -2.03258   -3.93223
H      4.66655   -2.91603    0.14813
H     -1.31501   -0.79541   -1.94038
H     -0.47324   -1.23866   -3.42166
H     -0.46086   -2.81967   -0.79705
H     -1.27223   -3.29086   -2.28506
H      0.84335    0.47636   -2.20824
H      0.84034   -0.50746   -0.75094
H      0.88594   -4.50965   -2.01105
H      0.90161   -3.50733   -3.45520
H      2.18026   -1.22762   -3.41157
H      3.00323   -0.74162   -1.93434
H      2.15139   -2.75177   -0.77056
H      2.72284   -9.34898    0.78163
H      4.37308   -8.98155    1.29148
H      3.99168  -10.59191    0.62659
H      3.39848   -3.43095   -3.46230
