29   

C        3.1035496182   -1.2030968108    1.7475705293
C        1.4094143504   -1.5964362677    0.0801022353
C        2.2017493641   -0.4164521628    2.4735293670
C        0.5139549903   -0.8075630772    0.8124702595
C        8.6198839873   -4.8922390435    2.0928953328
C        2.7327594007   -1.8046142647    0.5267251272
C        0.9008297629   -0.2086887016    2.0125517857
C        8.7125048917   -5.4066856183    0.8272832222
C        6.8303890422   -4.2771211444    0.5701293998
C        3.7024165726   -2.6399621917   -0.2168134320
C        9.8548950851   -6.2649964896    0.3804654535
C        3.4692370824   -3.0192585591   -1.6609711313
N        7.6922852230   -5.0439782397   -0.0420329966
N        4.7790733147   -3.0445971081    0.4268929461
N        5.7313935696   -3.8343936708   -0.1530658322
S        7.1883009056   -3.9127460195    2.2551142255
Cl      -0.2216724366    0.7730874233    2.9210347016
H        4.1037425793   -1.3357283231    2.1474641080
H        1.0390831530   -2.0530888019   -0.8288102130
H        2.5138338102    0.0377399025    3.4067079479
H       -0.4973293381   -0.6604229210    0.4515278471
H        9.3380630978   -5.0648475379    2.8840647891
H        9.5787534492   -7.3193251180    0.4681279222
H       10.0983068852   -6.0473154096   -0.6632939845
H       10.7387791039   -6.0742371900    0.9956422146
H        4.3787745560   -2.8489488536   -2.2441601540
H        3.2051100710   -4.0786449833   -1.7262217035
H        2.6817315593   -2.4232523614   -2.1245646252
H        5.6920569608   -4.1722185128   -1.1092321230
29   

C        3.1284952971   -1.0459908113    1.6552812826
C        1.3576945577   -1.7893400428    0.1977013890
C        2.2096946192   -0.2686615187    2.3701242781
C        0.4443881135   -1.0091682986    0.9171883738
C        8.6461429868   -4.8701767830    2.0732965242
C        2.7207557983   -1.8210723467    0.5526514399
C        0.8607744928   -0.2415816794    2.0077714020
C        8.7254222178   -5.3854154512    0.8070951399
C        6.8343394793   -4.2658332889    0.5729304073
C        3.7068963046   -2.6279424336   -0.1996191748
C        9.8255471188   -6.3019169520    0.3697768316
C        3.5191343883   -2.9059614776   -1.6734895488
N        7.6836969931   -5.0424241529   -0.0444749429
N        4.7652373191   -3.0595397506    0.4544349633
N        5.7283835452   -3.8245749095   -0.1403560980
S        7.2192562113   -3.8859454066    2.2483843576
Cl      -0.2829203202    0.7289163330    2.9018194066
H        4.1689882932   -1.0428034759    1.9642207213
H        0.9865825441   -2.3816139889   -0.6304198560
H        2.5450590962    0.3198822640    3.2160764139
H       -0.6012705942   -0.9991411905    0.6324404782
H        9.3650656504   -5.0540013317    2.8612489803
H        9.4317651734   -7.0530518328   -0.3207916919
H       10.6042058268   -5.7262857042   -0.1379228393
H       10.2625212464   -6.8121730511    1.2328084756
H        4.4213520340   -2.6238163791   -2.2239331375
H        3.3314136064   -3.9722442308   -1.8286437230
H        2.6870042768   -2.3325157720   -2.0883670329
H        5.6896742895   -4.1501180909   -1.1008370733
29   

C        3.1969415057   -0.8544876347    1.5023057106
C        1.4085632449   -1.9078045869    0.2737031118
C        2.2619441470   -0.0623810269    2.1791456622
C        0.4780706226   -1.1125809715    0.9535895097
C        8.6263770764   -4.9676058821    2.1600457014
C        2.7840038695   -1.7956411955    0.5432406672
C        0.8951406142   -0.1837850672    1.9117122526
C        8.7551843774   -5.4146519731    0.8722084475
C        6.8742065893   -4.2809591132    0.6247774466
C        3.7850856355   -2.6001014474   -0.1946948177
C        9.8717922598   -6.3085231251    0.4298143034
C        3.6586278056   -2.7858355416   -1.6899542826
N        7.7472775753   -5.0249611279    0.0003084719
N        4.8125516717   -3.0628704244    0.4843073266
N        5.7976009365   -3.8011920556   -0.1082150872
S        7.1934724181   -3.9914706526    2.3316718679
Cl      -0.2689346362    0.8059934536    2.7569678106
H        4.2528818821   -0.7408452606    1.7260610915
H        1.0531641722   -2.6220467221   -0.4605380917
H        2.5975480605    0.6541062889    2.9197462572
H       -0.5796215185   -1.2140638286    0.7401754647
H        9.3139451261   -5.1946081293    2.9645421458
H        9.5074711397   -7.0156898333   -0.3207511178
H       10.6731276985   -5.7073171197   -0.0081798091
H       10.2693360751   -6.8709370398    1.2793860444
H        4.5605442408   -2.4194142042   -2.1888038355
H        3.5319352690   -3.8467943037   -1.9234598782
H        2.8023959545   -2.2312943321   -2.0830979112
H        5.7993746348   -4.0747853806   -1.0855449886
29   

C        3.1945945422   -0.6967485437    1.3754722603
C        1.4329128474   -2.0557569215    0.4444381791
C        2.2396048023    0.0834491909    2.0382826219
C        0.4813810396   -1.2722743600    1.1087138513
C        8.5813589394   -5.0958118884    2.1797712637
C        2.8039912446   -1.7845038453    0.5790956423
C        0.8752822584   -0.1970398319    1.9117727648
C        8.7416839271   -5.4695583238    0.8722841877
C        6.8764266648   -4.3069196511    0.6404699891
C        3.8199422704   -2.5680245209   -0.1687465865
C        9.8625635034   -6.3475462077    0.4093535875
C        3.7329049996   -2.6503882328   -1.6765113982
N        7.7607960898   -5.0214181078   -0.0023468351
N        4.8242581628   -3.0710569023    0.5137605320
N        5.8233411282   -3.7781342587   -0.0929881705
S        7.1515341911   -4.1184233199    2.3689908483
Cl      -0.3142922300    0.7790067420    2.7372509656
H        4.2489013565   -0.4633632824    1.4831106793
H        1.1035274193   -2.8821205239   -0.1757150098
H        2.5566064677    0.9150253109    2.6567188642
H       -0.5737900725   -1.4956851028    1.0026790482
H        9.2449511417   -5.3748085638    2.9880324255
H        9.5132335221   -7.0064288113   -0.3906551080
H       10.6809082430   -5.7302092945    0.0290726792
H       10.2314065168   -6.9621973749    1.2353616198
H        4.6316509886   -2.2186360606   -2.1263259887
H        3.6472343376   -3.6951205605   -1.9884663087
H        2.8617785262   -2.0995776444   -2.0424482690
H        5.8517711928   -3.9945726803   -1.0841390773
29   

C        3.1355292131   -0.5266297060    1.1914526255
C        1.5006931768   -2.2121225837    0.6401357425
C        2.1465815660    0.2145302825    1.8494783342
C        0.5143796761   -1.4674456779    1.2982781072
C        8.5144715250   -5.2264851549    2.1985013065
C        2.8251535144   -1.7529678542    0.5870476221
C        0.8277571109   -0.2483107493    1.9086430780
C        8.7153216224   -5.5268621764    0.8777829088
C        6.8720236057   -4.3287070672    0.6509313537
C        3.8697234008   -2.5044761948   -0.1649324797
C        9.8415944299   -6.3914795339    0.4029087843
C        3.8223741245   -2.5064553167   -1.6770567680
N        7.7699290891   -5.0167478293   -0.0019835893
N        4.8397695276   -3.0598862064    0.5245016161
N        5.8509101275   -3.7456642306   -0.0866294878
S        7.0897471450   -4.2432492200    2.3956715187
Cl      -0.4051077188    0.6799260515    2.7256976898
H        4.1536093225   -0.1536807865    1.1532419967
H        1.2374739888   -3.1528885718    0.1692104284
H        2.4005141316    1.1576411201    2.3190946450
H       -0.5048801886   -1.8336434753    1.3374441356
H        9.1469339934   -5.5596443697    3.0111892485
H        9.5122520524   -6.9996745771   -0.4443230485
H       10.6789102971   -5.7641274460    0.0855212589
H       10.1757677054   -7.0564139813    1.2043601895
H        4.7269278529   -2.0414680887   -2.0794912331
H        3.7562116092   -3.5334256598   -2.0472583623
H        2.9519591587   -1.9466714427   -2.0314577848
H        5.9129297699   -3.9042679756   -1.0871412608
29   

C        3.0034815596   -0.3343971224    0.9185717896
C        1.6776434289   -2.3478872367    0.8599657865
C        1.9672034657    0.3257848604    1.5901135119
C        0.6432039381   -1.6842942979    1.5306906207
C        8.3997038924   -5.3778389600    2.2277009458
C        2.8677903795   -1.6776422547    0.5427311068
C        0.7772686723   -0.3415979751    1.8997439313
C        8.6546354807   -5.6114150355    0.9028103736
C        6.8638807132   -4.3391445514    0.6589578220
C        3.9649478917   -2.3725855586   -0.1962605202
C        9.7746816149   -6.4862642571    0.4318840281
C        3.9609854567   -2.3338121619   -1.7087062093
N        7.7697856139   -5.0209069878    0.0104660763
N        4.8802293743   -2.9973672303    0.5077720483
N        5.8994713152   -3.6813397215   -0.0919067886
S        6.9988380754   -4.3587807938    2.4139653333
Cl      -0.5155167925    0.4851458784    2.7330303217
H        3.9211998930    0.1968049850    0.6904357030
H        1.5592607706   -3.3903305871    0.5848866347
H        2.0834616128    1.3643944674    1.8769271419
H       -0.2725333319   -2.2120299975    1.7703052155
H        8.9814628785   -5.7765502903    3.0487047036
H        9.4621394708   -7.0462322195   -0.4540738694
H       10.6404614136   -5.8698514729    0.1752419824
H       10.0593061827   -7.1956997146    1.2140774480
H        4.8804551736   -1.8662668104   -2.0723712641
H        3.8967089066   -3.3497337751   -2.1086505350
H        3.1047889152   -1.7573819288   -2.0711125824
H        6.0066639316   -3.7859534118   -1.0956938825
29   

C        2.9266190872   -0.2049464314    0.7402586567
C        1.8909939532   -2.3438275623    1.1472009527
C        1.9100393103    0.4232367618    1.4702023857
C        0.8763295192   -1.7123768308    1.8763395430
C        8.1357928197   -5.7396618381    2.1602238758
C        2.9194927134   -1.5953817800    0.5557691179
C        0.8740195276   -0.3234362351    2.0410717945
C        8.5361218587   -5.7608975633    0.8509775632
C        6.7643798654   -4.4605384740    0.6168292408
C        4.0163370746   -2.2703719942   -0.1956486169
C        9.7646994483   -6.4807199621    0.3884206637
C        4.0553815740   -2.1532705588   -1.7033692952
N        7.7525282242   -5.0228023029   -0.0261088249
N        4.8574896344   -3.0114417608    0.4886448237
N        5.8799949301   -3.6835279019   -0.1186290178
S        6.6995918421   -4.7715833216    2.3483307005
Cl      -0.3926334934    0.4625895106    2.9504302121
H        3.7280405282    0.3903204156    0.3166402201
H        1.8874240666   -3.4235911010    1.0420982705
H        1.9234332609    1.4988108781    1.6022903472
H        0.0855956677   -2.3023767961    2.3247938908
H        8.6442725537   -6.2462623772    2.9703315385
H        9.4923529489   -7.4716652735    0.0152596114
H       10.2450886893   -5.9175336138   -0.4166906035
H       10.4749176240   -6.5910678923    1.2127735544
H        5.0062441657   -1.7152067261   -2.0196963366
H        3.9516206923   -3.1429241859   -2.1574650341
H        3.2387088521   -1.5167952693   -2.0562252816
H        6.0855868531   -3.6390372136   -1.1114848446
29   

C        2.7504928152   -0.1970145339    0.5370552073
C        2.0605864108   -2.3657431483    1.3334581897
C        1.7154596471    0.3975743775    1.2692190362
C        1.0273891307   -1.7671714520    2.0640859150
C        8.0294185751   -5.8618744685    2.1408785192
C        2.9241458514   -1.5903818988    0.5431104580
C        0.8423717157   -0.3813955180    2.0353435090
C        8.4921618767   -5.8096165444    0.8532296324
C        6.7413135211   -4.4825932020    0.6121123023
C        4.0504625404   -2.2175130858   -0.1945211894
C        9.7373510152   -6.5115606802    0.4079546409
C        4.1629668036   -2.0243869921   -1.6904131478
N        7.7559433456   -5.0145862589   -0.0150524815
N        4.8520468158   -3.0109661441    0.4805368913
N        5.8975442605   -3.6560363166   -0.1169197946
S        6.5912246431   -4.8944630639    2.3170992282
Cl      -0.4465381402    0.3635128544    2.9480365787
H        3.4246884804    0.4294678180   -0.0364584186
H        2.2005801008   -3.4407356474    1.3818228433
H        1.5879874130    1.4736481352    1.2513666643
H        0.3659584840   -2.3800321065    2.6652335961
H        8.4956358214   -6.4193843793    2.9429415495
H        9.4776653239   -7.4774997123   -0.0335481995
H       10.2579001782   -5.9073068142   -0.3404242580
H       10.4075205632   -6.6741834357    1.2568138199
H        5.1228788253   -1.5612502812   -1.9357816921
H        4.0954105837   -2.9911115830   -2.1977306904
H        3.3568073067   -1.3817270575   -2.0555697311
H        6.1519614983   -3.5526070870   -1.0939535951
29   

C        2.5840723532   -0.2594293576    0.3842318107
C        2.1942482949   -2.3597322172    1.5005115088
C        1.5297577778    0.3148048620    1.1051688395
C        1.1414796954   -1.7811023724    2.2188627703
C        7.9538334583   -5.9770892707    2.1176686199
C        2.9221799324   -1.6121161030    0.5576784838
C        0.7968751724   -0.4404410144    2.0254369058
C        8.4671568625   -5.8575278419    0.8538748164
C        6.7251309821   -4.5188471025    0.6135191376
C        4.0617295866   -2.2114743719   -0.1742817620
C        9.7297872771   -6.5361740293    0.4217694780
C        4.2462227872   -1.9359550012   -1.6495133009
N        7.7647216908   -5.0175376844    0.0000842825
N        4.8396506991   -3.0420066986    0.4859496643
N        5.9089027521   -3.6549767786   -0.1034419094
S        6.5082060518   -5.0195702053    2.2872894367
Cl      -0.5161064452    0.2800019598    2.9233368358
H        3.1445144702    0.3589138340   -0.3079299127
H        2.4517155973   -3.3991675266    1.6772536610
H        1.2776668495    1.3584376302    0.9574975945
H        0.5887524132   -2.3745367274    2.9377591437
H        8.3888050479   -6.5763449029    2.9070897868
H        9.4887396846   -7.4764247185   -0.0814550094
H       10.2796092086   -5.8931220669   -0.2713013609
H       10.3653643847   -6.7455114838    1.2868410670
H        5.1986205394   -1.4247404071   -1.8162804142
H        4.2476855106   -2.8769918355   -2.2072070897
H        3.4359111991   -1.3115844539   -2.0353787026
H        6.2025068879   -3.4980514639   -1.0621870182
29   

C        2.4325338196   -0.3423954475    0.2529355462
C        2.3247522230   -2.3078157612    1.6403793825
C        1.3612655761    0.2120849041    0.9646391043
C        1.2547404659   -1.7488622701    2.3483123038
C        7.8819727447   -6.0805051997    2.0832403114
C        2.9281775610   -1.6189496408    0.5693049311
C        0.7609123873   -0.4855621332    2.0156764323
C        8.4417420976   -5.9029666594    0.8462455534
C        6.7106583560   -4.5503647837    0.6049350627
C        4.0705077969   -2.2061535077   -0.1653726598
C        9.7187138210   -6.5641382698    0.4294665885
C        4.3228451297   -1.8549009390   -1.6136882773
N        7.7720202028   -5.0219739928    0.0076281562
N        4.8306781120   -3.0666682621    0.4792773230
N        5.9209442454   -3.6523159322   -0.0995924413
S        6.4317775782   -5.1284179227    2.2443248860
Cl      -0.5735361717    0.2112758778    2.9004731781
H        2.8795336067    0.2475920964   -0.5384151402
H        2.6875393340   -3.2895880354    1.9277513590
H        0.9919533786    1.1976758904    0.7062198005
H        0.8037967132   -2.2985221815    3.1662565458
H        8.2869607094   -6.7175373435    2.8589215380
H        9.4953478684   -7.4805785424   -0.1234015709
H       10.2931201012   -5.8919883997   -0.2143034117
H       10.3229934552   -6.8130496507    1.3064014812
H        5.2465463180   -1.2754570353   -1.6990489284
H        4.4248782454   -2.7685357806   -2.2065124332
H        3.4979606219   -1.2784907846   -2.0387322370
H        6.2502149979   -3.4487536604   -1.0377503155
29   

C        2.5516747244   -0.0660144021    0.8413084550
C        2.1134855261   -2.3680644546    1.3863078981
C        1.7248642625    0.3339871964    1.8990291158
C        1.2891262100   -1.9622127456    2.4414995404
C        5.7510059440   -7.3190759574   -1.1786919212
C        2.7611230709   -1.4265233467    0.5566655755
C        1.0851107942   -0.6076959305    2.7070392052
C        6.4006119495   -6.7057489981   -2.2164530867
C        5.2573743841   -4.9610214771   -1.4862466807
C        3.6282788696   -1.8676322497   -0.5591567609
C        7.3909846212   -7.4135981340   -3.0880191343
C        4.0616311173   -0.9102166669   -1.6450817028
N        6.1198797105   -5.3562634746   -2.3837321158
N        4.0199606147   -3.1259530832   -0.5634163042
N        4.8633385401   -3.6304371866   -1.5127868827
S        4.7125260415   -6.1913560423   -0.3508536994
Cl       0.0571628744   -0.1014356146    4.0247062240
H        3.0355309716    0.7173352772    0.2723777573
H        2.2431344242   -3.4318918182    1.2147930008
H        1.5794144567    1.3884643595    2.1028186403
H        0.8025957019   -2.7058078542    3.0618944218
H        5.8706156080   -8.3589554663   -0.9032717986
H        6.8980723178   -7.7571432286   -4.0014841094
H        8.2032463146   -6.7325000117   -3.3572866948
H        7.8136669479   -8.2750975801   -2.5633370405
H        5.1110394533   -0.6381316053   -1.5002895684
H        3.9552230750   -1.3832234479   -2.6255673733
H        3.4537532327   -0.0045947903   -1.6687901920
H        5.2900745938   -3.0799020456   -2.2508652600
29   

C        2.3237398333   -0.0866313973    0.6461110515
C        2.3095859450   -2.3330388121    1.5024690146
C        1.4352989561    0.2940096011    1.6608209969
C        1.4228728663   -1.9456657275    2.5124917613
C        5.6937224843   -7.3486251286   -1.1862346622
C        2.7842542972   -1.4107702184    0.5405130985
C        0.9767247397   -0.6281456196    2.6018121176
C        6.3688489065   -6.7427226322   -2.2119930048
C        5.3038114861   -4.9652924583   -1.4435166155
C        3.7223105480   -1.8444774327   -0.5209381216
C        7.3218659701   -7.4763268493   -3.1036601014
C        4.2523150168   -0.8930025920   -1.5680491953
N        6.1491590473   -5.3786227954   -2.3491233664
N        4.0927140312   -3.1098757267   -0.5242288459
N        4.9621874797   -3.6200886371   -1.4470849431
S        4.7068558890   -6.1939245704   -0.3327623605
Cl      -0.1301764868   -0.1429895978    3.8622321648
H        2.6198476222    0.7009910394   -0.0305638423
H        2.6257127442   -3.3709188124    1.4776084907
H        1.0940805914    1.3208693750    1.7225701400
H        1.0769562576   -2.6755212841    3.2351286912
H        5.7659893806   -8.3988219187   -0.9344780275
H        6.8061101902   -7.7880222509   -4.0159924078
H        8.1570341012   -6.8236997215   -3.3732957327
H        7.7159622120   -8.3607524716   -2.5951744516
H        5.3424032335   -0.8412242783   -1.4926092257
H        3.9954996728   -1.2687453844   -2.5628404557
H        3.8689063847    0.1214800569   -1.4963910763
H        5.4044170319   -3.0752677506   -2.1802723968
29   

C        2.0925954732   -0.1962426710    0.4886399674
C        2.4660839018   -2.2666190283    1.6558840587
C        1.1485214676    0.1703821738    1.4564821256
C        1.5218393616   -1.8948745576    2.6191623491
C        5.6649308900   -7.3363337517   -1.2459187016
C        2.7776713247   -1.4210588956    0.5685505681
C        0.8553804065   -0.6722901361    2.5301976357
C        6.3514902686   -6.7158383953   -2.2551931284
C        5.3426582959   -4.9353897014   -1.4206876717
C        3.7812420112   -1.8232405119   -0.4427294970
C        7.2730824517   -7.4474081084   -3.1808675189
C        4.3652058702   -0.8227846618   -1.4131727084
N        6.1721391753   -5.3418063921   -2.3439709765
N        4.1409075362   -3.0908014435   -0.4709179343
N        5.0337906708   -3.5827695395   -1.3807892305
S        4.7173185144   -6.1831023149   -0.3473764416
Cl      -0.3238546436   -0.2090560168    3.7318806733
H        2.2507357743    0.4943902719   -0.3295250784
H        2.9614241842   -3.2261437052    1.7649077641
H        0.6296408064    1.1183125039    1.3740226591
H        1.3028165652   -2.5620939694    3.4446210374
H        5.7063101172   -8.3964059175   -1.0313413169
H        6.7406458072   -7.7071289975   -4.0999183884
H        8.1281039890   -6.8138233043   -3.4329840614
H        7.6398673587   -8.3632481600   -2.7088962517
H        5.4492834982   -0.9525970180   -1.4781751030
H        3.9346160830   -0.9777236202   -2.4065851481
H        4.1938807521    0.2087721470   -1.1022946266
H        5.4804552492   -3.0277539698   -2.1035387370
29   

C        1.9062605249   -0.2971349334    0.3442880173
C        2.5575166482   -2.1525010144    1.7347213312
C        0.9396335963    0.0656740747    1.2906441208
C        1.5898498331   -1.7855811963    2.6767989604
C        5.6950334778   -7.3023658123   -1.2517381869
C        2.7426732884   -1.4071612947    0.5531882423
C        0.7740037371   -0.6719282736    2.4655273889
C        6.3763688871   -6.6718664685   -2.2583596528
C        5.3241311263   -4.9094300171   -1.4391526270
C        3.7547389855   -1.8085589353   -0.4487221090
C        7.2618245307   -7.4001850551   -3.2211910432
C        4.4070082073   -0.7809911037   -1.3451221020
N        6.1554584619   -5.3052209498   -2.3654043589
N        4.0862602607   -3.0818097381   -0.5018857036
N        4.9960591694   -3.5612793077   -1.4013915673
S        4.7279057239   -6.1629829173   -0.3562474400
Cl      -0.4338449928   -0.2158196604    3.6412262753
H        1.9802279406    0.2926301995   -0.5617134928
H        3.1716966557   -3.0264374752    1.9273157532
H        0.3038087618    0.9251441751    1.1128821545
H        1.4675429125   -2.3716808361    3.5801467752
H        5.7425226800   -8.3635093154   -1.0438309206
H        7.1818710478   -6.9493949300   -4.2144441075
H        8.3004976948   -7.3378441119   -2.8854924908
H        6.9693742285   -8.4519422268   -3.2875930590
H        5.4952945052   -0.8792539629   -1.2945971619
H        4.0877239916   -0.9356819225   -2.3797187948
H        4.1551893485    0.2375904225   -1.0410857629
H        5.4513735081   -2.9974256526   -2.1118530950
29   

C        1.7822378618   -0.4242069420    0.2297570962
C        2.6811493669   -2.0083721169    1.8082590171
C        0.7978319038   -0.0637346640    1.1582324173
C        1.6950691738   -1.6448028827    2.7327272274
C        5.5965506778   -7.3204355001   -1.3379867982
C        2.7515270176   -1.3907701377    0.5467547359
C        0.7470921428   -0.6670370136    2.4183268024
C        6.3394090202   -6.6762821435   -2.2909791199
C        5.2957335803   -4.9135817095   -1.4614179316
C        3.7694402211   -1.8021769389   -0.4472620673
C        7.2491085072   -7.3968483025   -3.2368936059
C        4.4936446477   -0.7595532068   -1.2687349946
N        6.1585557370   -5.3014254684   -2.3619035122
N        4.0665438472   -3.0817577632   -0.5199764117
N        5.0015544464   -3.5587673156   -1.3944335814
S        4.6187444657   -6.1849331649   -0.4491776551
Cl      -0.4830212260   -0.2155698218    3.5725307741
H        1.7821565539    0.0493279446   -0.7455877636
H        3.3985603679   -2.7794713647    2.0703271309
H        0.0594282916    0.6866933454    0.9010461862
H        1.6597584010   -2.1284789191    3.7018986233
H        5.6070590758   -8.3886779669   -1.1640889238
H        7.2326594898   -6.9073683349   -4.2147991576
H        8.2711681018   -7.3807417337   -2.8488767963
H        6.9281874325   -8.4353592962   -3.3578504777
H        5.5727043175   -0.8430566108   -1.1098926267
H        4.2801074868   -0.9086645294   -2.3309887294
H        4.1834109996    0.2489893575   -0.9824863472
H        5.5053889248   -2.9856993262   -2.0635889421
29   

C        1.6701449596   -0.5938102025    0.1485782222
C        2.8006292086   -1.8317747415    1.8815290312
C        0.6669970959   -0.2407794011    1.0595963946
C        1.7954954127   -1.4767238161    2.7888569774
C        5.4989242678   -7.3299993533   -1.4341852206
C        2.7624172527   -1.3778752743    0.5533502181
C        0.7223636081   -0.6747701493    2.3879842222
C        6.3013875574   -6.6756472724   -2.3301609611
C        5.2770549477   -4.9118219578   -1.4791032200
C        3.8015750236   -1.7925242901   -0.4233856540
C        7.2277366854   -7.3902176981   -3.2643760356
C        4.5946035282   -0.7368428138   -1.1611385888
N        6.1659036938   -5.2939903798   -2.3564450823
N        4.0616340323   -3.0768665069   -0.5262993567
N        5.0212853055   -3.5515438779   -1.3747464964
S        4.5188082526   -6.1969238958   -0.5448961817
Cl      -0.5309063203   -0.2335894227    3.5210591247
H        1.5966878779   -0.2587377896   -0.8801441989
H        3.6165243162   -2.4697447405    2.2053469618
H       -0.1677827521    0.3701395844    0.7364486547
H        1.8421211613   -1.8308459847    3.8120326342
H        5.4690613583   -8.4036639994   -1.3006380024
H        7.2698399801   -6.8635619047   -4.2219892814
H        8.2318550059   -7.4238210460   -2.8330758164
H        6.8788062699   -8.4117850884   -3.4398270201
H        5.6568418202   -0.8295200408   -0.9171142533
H        4.4664566120   -0.8600732410   -2.2402691559
H        4.2575121415    0.2641391380   -0.8771465233
H        5.5725299926   -2.9712950730   -1.9988157017
29   

C        1.5738173093   -0.8245973682    0.0642534545
C        2.8953145789   -1.5926248804    1.9288131275
C        0.5486251966   -0.4584048377    0.9450250617
C        1.8682688362   -1.2253160949    2.8064101589
C        5.3814039155   -7.3487717913   -1.5734536879
C        2.7670216958   -1.3807728306    0.5480870660
C        0.6877550649   -0.6513013839    2.3235008054
C        6.2488367531   -6.6875207731   -2.4011881120
C        5.2521755796   -4.9240711468   -1.5170315391
C        3.8483878308   -1.7989052280   -0.3897328649
C        7.1902764639   -7.3960684194   -3.3248461380
C        4.7045268840   -0.7374621044   -1.0444716605
N        6.1664624341   -5.3017583739   -2.3698953325
N        4.0608634401   -3.0862388855   -0.5398468585
N        5.0426116091   -3.5605921624   -1.3627019110
S        4.4033974611   -6.2184492521   -0.6784342309
Cl      -0.5920845280   -0.1932711958    3.4195836774
H        1.4412451963   -0.6788689029   -1.0021704815
H        3.7982668580   -2.0515207902    2.3174502541
H       -0.3671631603   -0.0252150716    0.5601029928
H        1.9820887952   -1.3910995208    3.8713191069
H        5.3052487517   -8.4252633840   -1.4907680598
H        7.2944888511   -6.8309281619   -4.2553908055
H        8.1719942977   -7.4860897294   -2.8520731674
H        6.8131669729   -8.3952560749   -3.5605579042
H        5.7483987345   -0.8609129238   -0.7420252242
H        4.6376380937   -0.8222476391   -2.1327901533
H        4.3673846393    0.2596301577   -0.7466334875
H        5.6456106380   -2.9758084051   -1.9322867511
29   

C        1.5613619961   -1.0618340796    0.1393338493
C        3.0559647423   -1.2965200920    2.0166981542
C        0.5459934294   -0.6347825257    1.0038620271
C        2.0388043389   -0.8682551063    2.8782198201
C        5.0980199570   -7.3557212812   -1.8985165818
C        2.8286965820   -1.3933844943    0.6363144241
C        0.7758317080   -0.5313759035    2.3799519353
C        6.1297811187   -6.7054873886   -2.5210558271
C        5.1478009794   -4.9439216028   -1.6168848062
C        3.9189654320   -1.8241890141   -0.2901936870
C        7.1957128331   -7.4211592169   -3.2912779935
C        4.8340175014   -0.7719456378   -0.8776584857
N        6.1573698806   -5.3276685874   -2.3514003994
N        4.0389137278   -3.1070756723   -0.5423968679
N        5.0280928218   -3.5863700454   -1.3536341091
S        4.0753990709   -6.2229960119   -1.0578125475
Cl      -0.4903972223    0.0060710169    3.4555824962
H        1.3645393349   -1.1406300600   -0.9243746345
H        4.0282584768   -1.5581070195    2.4199253550
H       -0.4307830397   -0.3819067057    0.6083330577
H        2.2260149503   -0.7965983195    3.9432640579
H        4.9412181523   -8.4264779726   -1.9173279862
H        6.9517978196   -7.4078533809   -4.3569844434
H        8.1592261154   -6.9259031552   -3.1411711621
H        7.2775052540   -8.4587943368   -2.9554786885
H        5.8671217976   -0.9629798972   -0.5737101562
H        4.7750437700   -0.7935854880   -1.9695989710
H        4.5417980033    0.2225972235   -0.5281338389
H        5.7462990278   -3.0115622080   -1.7823524598
29   

C        1.5517503003   -1.4138460068    0.2083646926
C        3.0730734282   -0.9840271072    2.0299813311
C        0.4851172236   -0.9630955739    0.9954172957
C        2.0038544341   -0.5330489703    2.8134995492
C        5.0096545497   -7.3234842283   -2.0642917734
C        2.8566745827   -1.4376884628    0.7203230245
C        0.7010319382   -0.5184340994    2.3041089691
C        6.0846005909   -6.6791110825   -2.6157807583
C        5.1454417207   -4.9376181192   -1.6309124716
C        3.9945139527   -1.8595807158   -0.1449185505
C        7.1447518444   -7.3899473575   -3.3983090810
C        4.9367950362   -0.8033812494   -0.6791110319
N        6.1610205503   -5.3165850902   -2.3595512406
N        4.0738118054   -3.1277971865   -0.4767565454
N        5.0702795251   -3.5952630140   -1.2858907357
S        4.0066028904   -6.2034025010   -1.1840781442
Cl      -0.6299561257    0.0478159866    3.2823676985
H        1.3682464923   -1.7544992383   -0.8052031028
H        4.0766424036   -0.9838026864    2.4410103541
H       -0.5202063523   -0.9562737984    0.5907476596
H        2.1814193334   -0.1891047610    3.8257733512
H        4.8121816478   -8.3838923399   -2.1537615912
H        6.9246409974   -7.3175859089   -4.4668205631
H        8.1195017471   -6.9332901844   -3.2046672755
H        7.1873259366   -8.4446010719   -3.1119047211
H        5.9602739935   -1.0204876382   -0.3605992977
H        4.9005169655   -0.7891460436   -1.7722100433
H        4.6527436632    0.1845653652   -0.3051350398
H        5.8237379573   -3.0244554314   -1.6553550814
29   

C        1.5734138330   -1.6549796411    0.2956960588
C        3.0681684345   -0.7371114700    1.9512019222
C        0.4762250326   -1.2065256511    1.0407444205
C        1.9677770124   -0.2899193457    2.6926019144
C        4.9248678448   -7.2829212558   -2.1787184216
C        2.8841721437   -1.4364733401    0.7476348019
C        0.6628428818   -0.5209342691    2.2454060667
C        6.0451886914   -6.6616803128   -2.6623068693
C        5.1346881167   -4.9224414736   -1.6470947269
C        4.0419314028   -1.8614908119   -0.0795509985
C        7.1079661824   -7.3842664722   -3.4303657273
C        5.0412538034   -0.8269699491   -0.5473965324
N        6.1634791978   -5.3139281731   -2.3500540790
N        4.0872852338   -3.1177258728   -0.4634140669
N        5.0964994372   -3.5922831308   -1.2524481077
S        3.9307285315   -6.1575701761   -1.2950943611
Cl      -0.7070387549    0.0398429694    3.1717536839
H        1.4101313048   -2.1833172724   -0.6380148484
H        4.0707702110   -0.5431254704    2.3160588812
H       -0.5303510795   -1.3900538642    0.6835414105
H        2.1222441890    0.2427234953    3.6237161261
H        4.6907662096   -8.3305349789   -2.3172113851
H        6.9332218299   -7.2641612356   -4.5029533803
H        8.0908044810   -6.9735238460   -3.1823860075
H        7.0993852893   -8.4495760345   -3.1830369421
H        6.0404237310   -1.0824483960   -0.1833734480
H        5.0599317573   -0.7937409638   -1.6405740212
H        4.7717924664    0.1649791414   -0.1737767961
H        5.8863575007   -3.0382607806   -1.5674366481
29   

C        1.6171136347   -1.8208713071    0.4035976886
C        3.0576184918   -0.5343238081    1.8482597857
C        0.5032509942   -1.3869786383    1.1321672863
C        1.9397941620   -0.1034158790    2.5729854178
C        4.8418291009   -7.2307580141   -2.2737878072
C        2.9136934256   -1.4067286714    0.7549840386
C        0.6537324830   -0.5252299715    2.2226548783
C        6.0039736633   -6.6419004619   -2.6952545925
C        5.1249742141   -4.8977881337   -1.6608577662
C        4.0806579251   -1.8407763793   -0.0473040898
C        7.0654355666   -7.3839615495   -3.4463707092
C        5.1489215952   -0.8440212651   -0.4366326053
N        6.1639359482   -5.3101655367   -2.3363236003
N        4.0991608532   -3.0873586573   -0.4675208341
N        5.1227031107   -3.5793411699   -1.2270233058
S        3.8598818461   -6.0924040545   -1.3931913459
Cl      -0.7374469034    0.0149741266    3.1292904288
H        1.4747343720   -2.4885462017   -0.4401615186
H        4.0421915786   -0.1929435790    2.1476524256
H       -0.4886437014   -1.7208833256    0.8508742935
H        2.0661286570    0.5641416524    3.4173572477
H        4.5715580501   -8.2631836277   -2.4541890134
H        6.9372045362   -7.2231670895   -4.5202085970
H        8.0538348737   -7.0225920993   -3.1486409995
H        7.0040459331   -8.4551995369   -3.2347046637
H        6.1084465306   -1.1386249790   -0.0022014022
H        5.2491389889   -0.8110660310   -1.5254115800
H        4.8945611943    0.1601478973   -0.0871246096
H        5.9459080113   -3.0483168048   -1.4923102768
29   

C        1.6594230187   -1.9602811568    0.5259989799
C        3.0169009765   -0.3770498474    1.7360611123
C        0.5367056668   -1.5495755528    1.2541765574
C        1.8894170449    0.0288526525    2.4602587202
C        4.7739593678   -7.1695802069   -2.3793299197
C        2.9227413522   -1.3801659598    0.7512358250
C        0.6402507421   -0.5514070275    2.2260711722
C        5.9780233980   -6.6167280166   -2.7251806982
C        5.1154486421   -4.8668307494   -1.6867506090
C        4.0968534930   -1.8178811448   -0.0356499507
C        7.0468538345   -7.3802604748   -3.4436042056
C        5.2280385839   -0.8607286212   -0.3340763512
N        6.1708244489   -5.3024365609   -2.3208828827
N        4.0986071751   -3.0531319296   -0.4919760495
N        5.1400622586   -3.5614270417   -1.2156576734
S        3.7932013487   -6.0167300296   -1.5165033779
Cl      -0.7622193898   -0.0415528451    3.1329008404
H        1.5424897096   -2.7380761236   -0.2219602855
H        3.9683935748    0.0890187416    1.9635368352
H       -0.4260063232   -2.0099157707    1.0650685452
H        1.9805374591    0.7996769417    3.2166384863
H        4.4734490908   -8.1850991960   -2.6027706799
H        6.9859058655   -7.1779374146   -4.5163458423
H        8.0316615990   -7.0738378403   -3.0797200307
H        6.9277137600   -8.4541683311   -3.2743211030
H        6.1325970857   -1.1807127130    0.1909472232
H        5.4312576370   -0.8473755857   -1.4088358945
H        4.9819252767    0.1600353640   -0.0326201016
H        5.9954224079   -3.0556476229   -1.4219328407
29   

C        1.7214130773   -2.0872880607    0.6633168289
C        2.9509881933   -0.2399091465    1.6037913186
C        0.5889487042   -1.6977835589    1.3878217485
C        1.8130204943    0.1426232181    2.3243525819
C        4.7133422641   -7.1099031157   -2.4877529187
C        2.9282127725   -1.3613675554    0.7464252832
C        0.6224757594   -0.5791744733    2.2220836689
C        5.9541540238   -6.5965320136   -2.7559771315
C        5.1058102838   -4.8407768584   -1.7158229532
C        4.1126750862   -1.8012238488   -0.0246090483
C        7.0295637901   -7.3830886283   -3.4388536709
C        5.3029071174   -0.8940093406   -0.2340282901
N        6.1755074834   -5.3015404210   -2.3066225579
N        4.0989031676   -3.0230802350   -0.5190196312
N        5.1550179184   -3.5501585273   -1.2075249371
S        3.7335556174   -5.9415309639   -1.6448992383
Cl      -0.7923964919   -0.0965332306    3.1245460746
H        1.6456024471   -2.9641715446    0.0283092364
H        3.8493544029    0.3469841300    1.7461386154
H       -0.3272636288   -2.2704163470    1.3032294790
H        1.8514390326    1.0069254663    2.9771365437
H        4.3863731355   -8.1066808241   -2.7542951831
H        7.0384399303   -7.1451364530   -4.5059583053
H        8.0038263466   -7.1309985507   -3.0105736508
H        6.8565626542   -8.4555721579   -3.3124418787
H        6.1480354594   -1.2495289519    0.3623659657
H        5.5929575528   -0.8972198157   -1.2887448403
H        5.0872021854    0.1419126929    0.0315017964
H        6.0386706309   -3.0731394589   -1.3544112037
29   

C        1.8203703882   -2.2238510969    0.9047885438
C        2.8406084506   -0.1130713705    1.4469935539
C        0.6603739737   -1.8349766293    1.5842424420
C        1.6755521340    0.2672555557    2.1244889653
C        4.7058898549   -7.0544248385   -2.5561945384
C        2.9452913146   -1.3747898125    0.8137165683
C        0.5759622222   -0.5869687525    2.1998595471
C        5.9607991605   -6.5557416516   -2.7834267967
C        5.1312108029   -4.8288645756   -1.6816797639
C        4.1542549362   -1.8260670897    0.0859375352
C        7.0302658953   -7.3334972242   -3.4854279913
C        5.3867781581   -0.9620058969   -0.0444295951
N        6.2010636192   -5.2863430387   -2.2747125995
N        4.1309386010   -3.0313414811   -0.4486928830
N        5.1968345713   -3.5612605531   -1.1201711763
S        3.7364712136   -5.9033500991   -1.6782671302
Cl      -0.8727939882   -0.1041858877    3.0467820880
H        1.8260301538   -3.2072409302    0.4459138440
H        3.6422639874    0.6112591701    1.4424232468
H       -0.1856404987   -2.5104388886    1.6345921211
H        1.6204944763    1.2393019351    2.6007091469
H        4.3630578975   -8.0315105475   -2.8713028028
H        7.0575416671   -7.0511994579   -4.5413708048
H        8.0033820075   -7.1182810870   -3.0350161911
H        6.8355603707   -8.4068019180   -3.4065804891
H        6.2346004271   -1.4616475188    0.4332706577
H        5.6224322431   -0.8205994479   -1.1033143025
H        5.2872376478    0.0249250229    0.4016100603
H        6.0899262011   -3.0938073449   -1.2378136984
