24   

C       -0.6266502753    1.2028809297   -0.0577434047
C        0.5635715259    0.6605188954    0.3739303750
C        1.5239331323    1.4391078584    1.2314323659
C       -1.5719742751    0.4568073134   -0.9496913648
C       -0.1021150763   -1.5102842786   -0.6668517078
C        3.6711414041    1.7676148377    2.4032454089
C        3.6130882219    0.3968788221    0.3270211986
N        0.8921958352   -0.6570094359   -0.0218197457
N       -0.8539483447   -0.6587720950   -1.5823056856
N        2.8787597426    1.0942235241    1.3782650349
O        1.1567470494    2.4617990752    1.8123676603
H       -0.8634849155    2.2256446531    0.2111903255
H       -2.4086410620    0.0769280780   -0.3542687567
H       -1.9692511145    1.1316261890   -1.7149568944
H        0.3943134268   -2.3101964448   -1.2249866122
H       -0.7686139583   -1.9526109526    0.0815565982
H        4.6112729321    1.2340831621    2.5750963158
H        3.1254833883    1.7894600599    3.3525182318
H        3.8944054463    2.7945127379    2.0967117968
H        4.6047215150    0.8432751915    0.2010448794
H        3.1076078703    0.4924983738   -0.6395131591
H        3.7341834440   -0.6611191776    0.5771704622
H        1.7502045415   -1.0796824105    0.3129339880
H       -1.4588530295   -1.2016574156   -2.1891490069
24   

C       -0.5837062400    1.1872410981   -0.0963864429
C        0.5506660577    0.6066449144    0.4227074343
C        1.4836639374    1.3522963927    1.3368038258
C       -1.5004125429    0.4544274683   -1.0285297545
C       -0.1435238397   -1.5662041938   -0.5864168020
C        3.6792718603    1.7440066752    2.3984602157
C        3.5597473401    0.4759728936    0.2530450048
N        0.8437611481   -0.7366878973    0.0991048189
N       -0.7935591752   -0.7127986853   -1.5762689333
N        2.8633409849    1.0953341394    1.3769329549
O        1.0593535571    2.2477287168    2.0704236607
H       -0.7932768912    2.2242336543    0.1379843993
H       -2.3919497513    0.1318565978   -0.4808151625
H       -1.8135854592    1.1200996878   -1.8394628847
H        0.3516742260   -2.4050533857   -1.0853424884
H       -0.8777988142   -1.9541224407    0.1279834814
H        4.6608184393    1.2647088344    2.4681731051
H        3.1998815602    1.6598232413    3.3794562818
H        3.8163594494    2.8030096609    2.1577902239
H        4.5067401246    0.9925128107    0.0667526078
H        2.9764934135    0.5554984372   -0.6701503338
H        3.7678655506   -0.5773509565    0.4623107734
H        1.6624177630   -1.1813395510    0.4995114979
H       -1.3819599878   -1.2493977245   -2.2046053053
24   

C       -0.5322690027    1.1806805024   -0.1305680853
C        0.5351287807    0.5561018168    0.4694374941
C        1.4516438287    1.2601362917    1.4344762790
C       -1.4249232316    0.4668981347   -1.1002476695
C       -0.2018481103   -1.6071000005   -0.5226982827
C        3.6835138207    1.7175069516    2.3953839084
C        3.4983038084    0.5576453968    0.1876912344
N        0.7783466581   -0.8100112868    0.2099143187
N       -0.7435633192   -0.7482226597   -1.5725872629
N        2.8433800070    1.1009215781    1.3744506476
O        0.9954407656    2.0015302817    2.3081198512
H       -0.7030591225    2.2315092040    0.0700669970
H       -2.3635225717    0.2026833705   -0.6021031798
H       -1.6538674103    1.1236002715   -1.9458917973
H        0.2827562536   -2.4808585438   -0.9693898762
H       -0.9995857356   -1.9417733323    0.1493223687
H        4.6861293685    1.2786067096    2.3833714177
H        3.2616063857    1.5493751017    3.3918177054
H        3.7645273342    2.7946333085    2.2185996437
H        4.3952362444    1.1399465099   -0.0459817009
H        2.8497264754    0.6170811747   -0.6923320624
H        3.7854300045   -0.4850954482    0.3517802687
H        1.5503663023   -1.2806969891    0.6698518469
H       -1.3170987177   -1.2725909819   -2.2246023966
24   

C       -0.3973504405    1.1799696250   -0.0983908217
C        0.5973904712    0.5102105026    0.5713560688
C        1.5252271129    1.1715821667    1.5594084122
C       -1.2848844929    0.4847779744   -1.0862919953
C       -0.2107366221   -1.6371638704   -0.3898791660
C        3.7978064990    1.7154789166    2.3807184068
C        3.5029081879    0.6642221388    0.1268933025
N        0.7736027556   -0.8744890383    0.3732151711
N       -0.6512673299   -0.7807178837   -1.4892361303
N        2.9135208125    1.1299605574    1.3793669204
O        1.0793556222    1.7413016975    2.5588715580
H       -0.5108548877    2.2455158631    0.0588795887
H       -2.2579684077    0.2880979913   -0.6243499916
H       -1.4388817718    1.1247516197   -1.9612143635
H        0.2467852859   -2.5481655145   -0.7881281359
H       -1.0587801974   -1.9093462561    0.2478716703
H        4.7995305269    1.2809027217    2.3053264446
H        3.4281780961    1.5128705236    3.3913058508
H        3.8674002966    2.7980781093    2.2361616884
H        4.3447772042    1.3052385589   -0.1530846172
H        2.7864573654    0.7082371502   -0.6996392095
H        3.8591980457   -0.3647623658    0.2323940983
H        1.4936353824   -1.3719542798    0.8868172722
H       -1.2214770692   -1.2928343544   -2.1538334296
24   

C       -0.3433199192    1.1944514371   -0.1754033857
C        0.5423535814    0.4744974475    0.5876943028
C        1.4425935155    1.0764774920    1.6407896329
C       -1.1877474885    0.5324184920   -1.2222175974
C       -0.2965348938   -1.6374326100   -0.4152788267
C        3.6977991175    1.7447590950    2.4393462134
C        3.3985933877    0.8547439990    0.1166269949
N        0.6595581958   -0.9197631946    0.4234904522
N       -0.5961480963   -0.7731919126   -1.5564049150
N        2.8178268502    1.1988965206    1.4115541217
O        0.9821644344    1.4307930642    2.7300846279
H       -0.3992513196    2.2682649796   -0.0479476064
H       -2.2037593293    0.3972314697   -0.8368284482
H       -1.2361611445    1.1645156912   -2.1148645059
H        0.1426638335   -2.5767819181   -0.7654216478
H       -1.2090544322   -1.8556503005    0.1501272768
H        4.6843634004    1.2746062778    2.3799106152
H        3.3066597134    1.5502620529    3.4431503809
H        3.8083095549    2.8252393343    2.3056651520
H        4.2101090485    1.5471308729   -0.1281852726
H        2.6642628236    0.9302748755   -0.6915596347
H        3.7956397141   -0.1646685528    0.1378602196
H        1.2884587734   -1.4485571633    1.0194397998
H       -1.1378626785   -1.2636010940   -2.2600874764
24   

C       -0.2040953558    1.2081129070   -0.2401005624
C        0.5522816298    0.4229041400    0.5941232054
C        1.4628698054    0.9444369718    1.6808367798
C       -1.0528597185    0.6019961263   -1.3168781398
C       -0.4132942065   -1.6233784279   -0.4206804566
C        3.6836176490    1.7564210373    2.4460488405
C        3.3399067398    1.0800666008    0.0567830576
N        0.5570680834   -0.9771255633    0.4585257479
N       -0.5713648877   -0.7613561821   -1.5923397639
N        2.7981004157    1.2529646117    1.4013436049
O        1.0346027847    1.0868141815    2.8307007552
H       -0.1551773085    2.2853494633   -0.1441125887
H       -2.0952515854    0.5714808897   -0.9825683947
H       -0.9967548569    1.2132693229   -2.2234026385
H       -0.0432777020   -2.6060357739   -0.7294936796
H       -1.3711330260   -1.7460228147    0.0965545939
H        4.2644600576    0.9346593453    2.8758084180
H        3.1206835370    2.2470295765    3.2465240007
H        4.3701223831    2.5011506642    2.0312978640
H        3.2136362574    1.9990257345   -0.5238385933
H        2.8529667488    0.2557435195   -0.4735697808
H        4.4059219697    0.8374134029    0.1078650041
H        1.0676038211   -1.5433998025    1.1293558811
H       -1.1196768252   -1.2167184023   -2.3142267165
24   

C       -0.0344710269    1.1982773321   -0.2747239562
C        0.6058837515    0.3650198598    0.6095581290
C        1.5434420256    0.8131615410    1.7034987796
C       -0.9245248894    0.6503371512   -1.3493824723
C       -0.5491455111   -1.5987748989   -0.3633448396
C        3.6994743808    1.7720474424    2.4647462940
C        3.3263064420    1.2684515841    0.0350056463
N        0.4682066654   -1.0294209141    0.5154659498
N       -0.5929217732   -0.7668526698   -1.5666465815
N        2.8190953690    1.2983706323    1.4029828548
O        1.1720612201    0.7613147259    2.8814887559
H        0.1317245303    2.2663204924   -0.2155498992
H       -1.9698954571    0.7469381132   -1.0374544356
H       -0.7846939741    1.2181474936   -2.2748640897
H       -0.2809882317   -2.6255458861   -0.6311587544
H       -1.5238505453   -1.6004337660    0.1366614665
H        4.2935347650    0.9427652097    2.8608432768
H        3.1242147563    2.2197804925    3.2817211003
H        4.3740663747    2.5440031713    2.0813758609
H        3.1084461794    2.2130652810   -0.4725297675
H        2.8857146201    0.4457148405   -0.5376635591
H        4.4090855321    1.1082846795    0.0374341753
H        0.8677645709   -1.6114737314    1.2463488698
H       -1.1754896166   -1.1862673188   -2.2834269849
24   

C        0.1730805931    1.0860929182   -0.3130460701
C        0.7567213743    0.2566022718    0.6147046717
C        1.7321722618    0.6823427529    1.6804015370
C       -0.7863991089    0.5533360927   -1.3346038697
C       -0.5964162593   -1.6498518527   -0.2000740101
C        3.8049111297    1.8118374811    2.4265316459
C        3.3852418036    1.4351361224   -0.0171612770
N        0.4925131938   -1.1199295279    0.6146648935
N       -0.5971426085   -0.9005028532   -1.4573251388
N        2.9265743891    1.3360474405    1.3642071771
O        1.4479138240    0.4733786721    2.8664909325
H        0.4238469321    2.1389862503   -0.3216240536
H       -1.8111283755    0.7713557767   -1.0153803371
H       -0.6129143995    1.0405060872   -2.2994687369
H       -0.4308506658   -2.7128726159   -0.4012012229
H       -1.5528137669   -1.5267646350    0.3197597828
H        4.4605572951    1.0038791492    2.7655535298
H        3.2224274422    2.1794988282    3.2777687898
H        4.4189463609    2.6439138076    2.0679362284
H        3.0759889600    2.3892028439   -0.4546017868
H        2.9909755578    0.6160028325   -0.6276113034
H        4.4767764768    1.3633131630   -0.0579506325
H        0.8302195381   -1.6689174981    1.4014293780
H       -1.2352187553   -1.3110827027   -2.1305654941
24   

C        0.2720962676    1.0026869885   -0.4147271278
C        0.7942941743    0.1715959400    0.5497278587
C        1.7845463329    0.5591953379    1.6139188715
C       -0.7394050703    0.5062054728   -1.4045738100
C       -0.7525068818   -1.6345663075   -0.1412003374
C        3.7720247765    1.7803095286    2.4345402050
C        3.3636547619    1.5665818529   -0.0274703043
N        0.3964612129   -1.1677687956    0.6274483651
N       -0.6987712440   -0.9636333708   -1.4405931307
N        2.9141320076    1.3380771727    1.3412121100
O        1.5726753823    0.1933326314    2.7781529287
H        0.5946285157    2.0339252645   -0.4706718532
H       -1.7359138175    0.8448232717   -1.1016121004
H       -0.5220439554    0.9145319334   -2.3967446274
H       -0.6954669640   -2.7187383947   -0.2796678657
H       -1.6833886290   -1.3864755179    0.3803052062
H        4.4641630690    0.9819886957    2.7196997867
H        3.1726413547    2.0617208549    3.3067609117
H        4.3470905356    2.6621380978    2.1350625352
H        2.9890094284    2.5253222951   -0.3985338725
H        3.0284910643    0.7648545481   -0.6937362551
H        4.4575875801    1.5754217868   -0.0684117158
H        0.6846317530   -1.6882115426    1.4537186330
H       -1.3825919228   -1.3484491493   -2.0833698734
24   

C        0.3791195009    0.9029118966   -0.4712702766
C        0.8691989193    0.0916738350    0.5288933241
C        1.8772197939    0.4674955574    1.5808858598
C       -0.6831487682    0.4231496036   -1.4160870855
C       -0.8406596479   -1.6197820499   -0.0106161596
C        3.7874517658    1.7632155722    2.4596530381
C        3.3736121940    1.6829045283   -0.0045054850
N        0.3620997606   -1.1978726697    0.6982819981
N       -0.7646047883   -1.0435439957   -1.3529301595
N        2.9386082964    1.3507108903    1.3472758743
O        1.7663912967   -0.0343766185    2.7085851454
H        0.7470275623    1.9129172826   -0.5864793114
H       -1.6443730411    0.8627059148   -1.1292582023
H       -0.4473261531    0.7437583073   -2.4358821016
H       -0.8746672988   -2.7118151406   -0.0751189938
H       -1.7344161486   -1.2610899909    0.5114542261
H        4.5073984701    0.9746671646    2.6999206256
H        3.1815644846    1.9761042890    3.3467249841
H        4.3313258546    2.6788134364    2.2068470200
H        2.9471929346    2.6396422975   -0.3208156767
H        3.0861097878    0.9016430909   -0.7156690931
H        4.4653161826    1.7563045617   -0.0415362931
H        0.6459252356   -1.6896085594    1.5447039928
H       -1.4912384275   -1.4131535961   -1.9563738470
24   

C        0.4532180126    0.8165096895   -0.5653865202
C        0.9112457098    0.0260376992    0.4688982998
C        1.9394109239    0.3808451097    1.5114207950
C       -0.6527034842    0.3597733411   -1.4719628816
C       -0.9458456057   -1.5710734260    0.0604660938
C        3.7736802704    1.7226953831    2.4734474303
C        3.3468054796    1.8109940311    0.0178510572
N        0.3015050358   -1.2019926460    0.7185738881
N       -0.8497269567   -1.0882844307   -1.3159395005
N        2.9311927344    1.3568703444    1.3392913749
O        1.9386489514   -0.2541581726    2.5762169747
H        0.8626100817    1.8000386911   -0.7405799091
H       -1.5737633095    0.8914268839   -1.2105326028
H       -0.4024205028    0.5945559862   -2.5115092696
H       -1.0672154431   -2.6587607552    0.0676317297
H       -1.7970115094   -1.1089421586    0.5722597560
H        4.5360068438    0.9557179414    2.6426888105
H        3.1692092316    1.8313973166    3.3801690696
H        4.2668305928    2.6826849632    2.2910549087
H        2.8495023564    2.7510189623   -0.2397923982
H        3.1293435920    1.0556665292   -0.7442903659
H        4.4293129648    1.9736801000   -0.0019745009
H        0.6013663843   -1.6923107632    1.5612627863
H       -1.6133551102   -1.4358988522   -1.8857656447
24   

C        0.5464223947    0.7128881559   -0.6609313638
C        0.9538934336   -0.0206939428    0.4376296436
C        2.0205366897    0.3049394845    1.4564972443
C       -0.6078162296    0.2737077075   -1.5156800107
C       -1.0449467963   -1.4822193876    0.1773859964
C        3.8088560524    1.6468099787    2.5005198136
C        3.2934403577    1.9810767993    0.0889479903
N        0.2337707767   -1.1556070116    0.7952473967
N       -0.9224392789   -1.1334427424   -1.2356409406
N        2.9487715992    1.3537988921    1.3570809996
O        2.1246653086   -0.4397804835    2.4431407386
H        1.0232370110    1.6352697428   -0.9480439989
H       -1.4777911994    0.9009715918   -1.2944106453
H       -0.3545073494    0.3971098940   -2.5735514603
H       -1.2518442591   -2.5517460714    0.2830241746
H       -1.8518416059   -0.9098850990    0.6478030432
H        4.6154354434    0.9097691487    2.5668321377
H        3.2302112012    1.6271469160    3.4301005784
H        4.2452556891    2.6463634386    2.4084793592
H        2.6558676500    2.8510643281   -0.0959084178
H        3.2069351756    1.2649557903   -0.7346333073
H        4.3356570003    2.3162311428    0.1016220875
H        0.5578978936   -1.6569459206    1.6229719551
H       -1.7180898985   -1.4641407840   -1.7706235676
24   

C        0.8334847778    0.5620132923   -0.6733173143
C        0.9097584525    0.2860574384    0.6754731253
C        2.1048905462    0.4530629003    1.5801136107
C       -0.3632030071    0.1558830598   -1.4783036043
C       -1.3284544267   -0.8132769087    0.5884063534
C        4.3254407471    1.3301246354    2.2064853264
C        2.9869284262    2.5088659150    0.4602530106
N       -0.1279671115   -0.3936210564    1.3070508014
N       -0.9752741453   -1.0044054784   -0.8180318750
N        3.1437012107    1.3659129016    1.3510142079
O        2.1582302384   -0.2372509251    2.6070543357
H        1.6854425610    0.9580952557   -1.2059301673
H       -1.0767553211    0.9843329436   -1.5322661770
H       -0.0528849745   -0.1095825173   -2.4943181096
H       -1.7005441883   -1.7547058808    1.0049782539
H       -2.1088171982   -0.0511794148    0.6845252298
H        5.1625432606    1.8462110782    1.7259111908
H        4.6377497597    0.2957504834    2.3853329330
H        4.1133460129    1.8099253804    3.1670599525
H        1.9342147020    2.7951203184    0.3695089941
H        3.3956567303    2.2838003400   -0.5295176865
H        3.5154647593    3.3778078062    0.8655841274
H        0.1235028853   -0.8489730532    2.1852825251
H       -1.7502536971   -1.3891920522   -1.3474260303
24   

C        0.8935941525    0.4489224861   -0.7228436553
C        0.9511232026    0.2225589343    0.6341303995
C        2.1611559364    0.3669378195    1.5172742123
C       -0.3310867543    0.0995249735   -1.5118654283
C       -1.3788166306   -0.6606569738    0.6061637958
C        4.3376969738    1.3459886155    2.1538835726
C        2.8691959665    2.5425452530    0.5200265051
N       -0.1422757083   -0.3260517206    1.3089877850
N       -1.0479762354   -0.9590236602   -0.7875634034
N        3.1267161108    1.3653764359    1.3407924630
O        2.3074322175   -0.4429251178    2.4420687848
H        1.7780775614    0.7673725198   -1.2572802769
H       -0.9679720978    0.9827319291   -1.6240909776
H       -0.0411280473   -0.2550264470   -2.5065139823
H       -1.8426156886   -1.5375925853    1.0688683388
H       -2.0799418209    0.1786950359    0.6599610006
H        5.1258565805    1.9399346542    1.6805451464
H        4.7155711961    0.3231918743    2.2563604812
H        4.1327844159    1.7521141964    3.1492920189
H        1.7961448435    2.7477302274    0.4498628820
H        3.2814643778    2.4075896553   -0.4845065329
H        3.3308080150    3.4257626689    0.9733100361
H        0.0849798221   -0.8132431396    2.1757267737
H       -1.8547589806   -1.3018663070   -1.2979778121
24   

C        0.9797508076    0.3174164723   -0.7805951975
C        1.0312674614    0.1366857259    0.5817427391
C        2.2574305897    0.2582687243    1.4441232181
C       -0.2747923657    0.0331957117   -1.5485838204
C       -1.3723110480   -0.5107315401    0.6139720688
C        4.3775262995    1.3338324006    2.1237052667
C        2.7952409371    2.5384553188    0.5995585226
N       -0.1018706154   -0.2755722777    1.2970648927
N       -1.0852864364   -0.9098370901   -0.7644686430
N        3.1454335219    1.3342140700    1.3433442207
O        2.4973590552   -0.6518936649    2.2471732873
H        1.8839909573    0.5607818994   -1.3229211472
H       -0.8283626362    0.9626991437   -1.7153199631
H       -0.0218582385   -0.4050771139   -2.5197068796
H       -1.9223974931   -1.3104778064    1.1199377960
H       -1.9810507599    0.3993277196    0.6288778556
H        5.1224318484    1.9885200779    1.6605831839
H        4.8083380036    0.3279165939    2.1662781438
H        4.1806188711    1.6808252361    3.1427685458
H        1.7097111669    2.6714061094    0.5497041709
H        3.2008323761    2.4925262831   -0.4156492787
H        3.2000071174    3.4226000963    1.1025133650
H        0.0876816645   -0.7793432190    2.1621957833
H       -1.9251029779   -1.2006813862   -1.2534785185
24   

C        1.0326979705    0.1739986914   -0.8623511972
C        1.0902957799    0.0597069192    0.5055315142
C        2.3387490393    0.1581812290    1.3406767982
C       -0.2528331235   -0.0441051255   -1.6001944160
C       -1.3641459812   -0.3375680184    0.6055268413
C        4.3864574886    1.3247524050    2.0963520574
C        2.6942008424    2.5325036986    0.6936659828
N       -0.0654517282   -0.2028933676    1.2626962066
N       -1.1415946010   -0.8479016161   -0.7478547661
N        3.1395250801    1.3037762048    1.3404766956
O        2.6758889284   -0.8240829976    2.0115199263
H        1.9465389052    0.3253890578   -1.4223881162
H       -0.7175701811    0.9200619865   -1.8296607314
H       -0.0544185687   -0.5709135757   -2.5394728191
H       -1.9903429565   -1.0408169766    1.1636408711
H       -1.8704032771    0.6327237121    0.5698910665
H        5.0809769414    2.0521600592    1.6645311159
H        4.8774948452    0.3464893275    2.0646331178
H        4.1918963874    1.5919730877    3.1396017570
H        1.6016120017    2.5868720346    0.6515942164
H        3.0961490239    2.5960308156   -0.3220497669
H        3.0331524703    3.4026401895    1.2649306169
H        0.0811677102   -0.6942488879    2.1419720325
H       -2.0135735742   -1.0835153929   -1.2095963238
24   

C        1.1136451257    0.0014404258   -0.9282065617
C        1.2061771978   -0.0042587318    0.4414424750
C        2.4897199671    0.0856591881    1.2286670509
C       -0.2072578284   -0.1758955898   -1.6125719851
C       -1.2684329843   -0.1804057187    0.6379345380
C        4.4378171815    1.3493108264    2.0934387064
C        2.6200311670    2.5371459138    0.8384356249
N        0.0569163519   -0.1177305528    1.2513642886
N       -1.1346533091   -0.8210353782   -0.6706708674
N        3.1788055783    1.2945581522    1.3593369875
O        2.9405758024   -0.9359865549    1.7568533046
H        2.0185200058    0.0445191027   -1.5208629397
H       -0.5982544726    0.7991540240   -1.9204555353
H       -0.0805768118   -0.7998707891   -2.5034737599
H       -1.9406194567   -0.7714173842    1.2680261981
H       -1.6822528068    0.8277362025    0.5306359215
H        5.0696223864    2.1535712050    1.7036865836
H        4.9971784629    0.4144106422    1.9839689729
H        4.2476545342    1.5273736199    3.1563138401
H        1.5274634199    2.4961257289    0.7865054912
H        3.0172325069    2.7435327179   -0.1600313015
H        2.8740366816    3.3702864051    1.5014105715
H        0.1820310380   -0.5584251915    2.1593072341
H       -2.0377882596   -1.0163262287   -1.0893934860
24   

C        1.1200977421   -0.1969916396   -1.0062756286
C        1.2612317145   -0.0472146695    0.3506390832
C        2.5810579282    0.0450680418    1.0808868911
C       -0.2320816868   -0.3628223189   -1.6296002750
C       -1.2123757753   -0.0390134293    0.6343244516
C        4.4337961640    1.3723164021    2.0675423612
C        2.4900142123    2.5251148452    0.9746055780
N        0.1335388426   -0.0175343011    1.2036228181
N       -1.1693961299   -0.8287601269   -0.5960479872
N        3.1519332035    1.2875419173    1.3745026237
O        3.1457933313   -0.9871518958    1.4546248944
H        2.0050897029   -0.2781212435   -1.6246307347
H       -0.5683091335    0.5948545395   -2.0400166262
H       -0.1762390018   -1.0919560852   -2.4446129071
H       -1.9073739559   -0.5009351456    1.3426226433
H       -1.5497842114    0.9814663746    0.4245086919
H        5.0183598462    2.2160885861    1.6881765456
H        5.0329143601    0.4695641433    1.9108947934
H        4.2713498992    1.5047001458    3.1416220811
H        1.9200818574    2.3959439185    0.0495941784
H        3.2277535712    3.3113916484    0.7873133111
H        1.8112533709    2.8599324301    1.7653263294
H        0.2549917327   -0.3707456094    2.1487032099
H       -2.0978411582   -1.0000813485   -0.9672544936
24   

C        1.1355443858   -0.3691459419   -1.0444360685
C        1.3283708612   -0.0800351267    0.2831999303
C        2.6825793926    0.0264942361    0.9474206146
C       -0.2403055596   -0.5430204764   -1.6107633546
C       -1.1359788974    0.0540863054    0.6307826656
C        4.4293026296    1.3674853095    2.1090120191
C        2.3915010891    2.4829536096    1.1720576343
N        0.2256671295    0.0643175537    1.1612096890
N       -1.1644503670   -0.8587304302   -0.5108150102
N        3.1519594415    1.2611124221    1.4104997822
O        3.3604047149   -0.9866916971    1.1418565748
H        1.9973430986   -0.5494485450   -1.6748097069
H       -0.5506891889    0.3803338751   -2.1106788836
H       -0.2374702193   -1.3539385357   -2.3465062725
H       -1.8314613940   -0.2972059326    1.3995039143
H       -1.4297462523    1.0636142175    0.3243381277
H        5.2006819966    1.7406455284    1.4284782232
H        4.7546488660    0.4021781263    2.5094809820
H        4.3364527629    2.0534543455    2.9567457766
H        1.8590373713    2.4392859812    0.2166359939
H        3.0633311658    3.3457922670    1.1255447905
H        1.6676107775    2.6416332930    1.9774292416
H        0.3583845168   -0.1945480216    2.1343156232
H       -2.1100566811   -1.0222306332   -0.8398610249
24   

C        1.3040201087   -0.4825895502   -1.0204414948
C        1.5110209859   -0.0723983829    0.2735759628
C        2.8831141389    0.1112131348    0.8796423121
C       -0.0723306853   -0.7423633536   -1.5508560620
C       -0.9562264280    0.0205812906    0.6404283441
C        4.5438941451    1.4398291510    2.1533256699
C        2.4012426925    2.4992724171    1.4039652525
N        0.4105884925    0.1039490798    1.1504319728
N       -0.9742412946   -0.9885789289   -0.4159059218
N        3.2452414554    1.3127753207    1.5010485218
O        3.6976910643   -0.8163375132    0.8703464555
H        2.1625818454   -0.6941685351   -1.6459835408
H       -0.4144698580    0.1263562280   -2.1228685593
H       -0.0543607653   -1.6122463057   -2.2155821530
H       -1.6359503798   -0.2770085291    1.4450567247
H       -1.2748124731    0.9931906938    0.2506237396
H        5.3105012656    1.7081103519    1.4198819982
H        4.8293719683    0.5020756152    2.6412409637
H        4.5060178173    2.2115235734    2.9285840769
H        1.7786504251    2.4743101794    0.5040019692
H        3.0210529515    3.3988471361    1.3355109493
H        1.7543043843    2.5792540112    2.2827805749
H        0.5588686549   -0.0575261847    2.1417200790
H       -1.9188614339   -1.2016136977   -0.7183432363
24   

C       -0.1382186757    0.5984086567    0.7060453645
C        1.2057588728    0.4101298231    0.4873261585
C        2.2644390786    1.1339570470    1.2817625756
C       -1.1796814347   -0.0537904364   -0.1498328476
C        0.6628397603   -1.2099736278   -1.3377064274
C        4.4728964393    1.2747247896    2.3846713417
C        3.5696083766   -0.9547159173    1.6978541480
N        1.6310827222   -0.4164764492   -0.5841634116
N       -0.5664902842   -0.4279859425   -1.4321503750
N        3.4385207438    0.4987375042    1.7092151127
O        2.1146075007    2.3249142941    1.5702844548
H       -0.4482941586    1.2969396738    1.4740248712
H       -1.5657812433   -0.9438041938    0.3578595369
H       -2.0099630093    0.6405360196   -0.3154422652
H        1.0484387707   -1.4125478588   -2.3418346910
H        0.4770956133   -2.1630379095   -0.8311277447
H        4.1751219426    1.4842468875    3.4168525002
H        4.6439606006    2.2219860982    1.8625225145
H        5.4204082631    0.7268614786    2.3920840377
H        4.0731652096   -1.2938598951    2.6086247852
H        4.1495365716   -1.2795998412    0.8290076007
H        2.5912271902   -1.4449164318    1.6801263379
H        2.5207868318   -0.2079460681   -1.0257867963
H       -1.2364415944   -0.8528149128   -2.0644719960
24   

C       -0.2053401072    0.6207353675    0.5678596651
C        1.1394761991    0.3586140981    0.4373379877
C        2.1743083608    1.0792362928    1.2626124855
C       -1.2345237671   -0.0312333078   -0.3027263750
C        0.5982900241   -1.3615618268   -1.2988906503
C        4.4187846077    1.3409714021    2.2606523995
C        3.6502728441   -0.9222986564    1.5394075215
N        1.5679688609   -0.5630823864   -0.5527018493
N       -0.5758969778   -0.5239752727   -1.5201663842
N        3.4184367495    0.5175259319    1.5889161518
O        1.9348004482    2.2105146512    1.6951487951
H       -0.5234836861    1.3748944122    1.2780514951
H       -1.6978812275   -0.8625263124    0.2387708053
H       -2.0135430140    0.6937509650   -0.5604310084
H        1.0242225204   -1.6608350640   -2.2617014181
H        0.3318399156   -2.2614188846   -0.7343091572
H        4.1471838341    1.4854715100    3.3111013023
H        4.4971390023    2.3190027695    1.7741805542
H        5.4042827929    0.8675249729    2.2094314585
H        4.2505210493   -1.2367747855    2.3990575943
H        4.1780766356   -1.1951082995    0.6209177996
H        2.7092175825   -1.4782145832    1.5973522369
H        2.4872434598   -0.4312315142   -0.9613763375
H       -1.2343721041   -0.9584192573   -2.1579923784
24   

C       -0.2087957484    0.7010934137    0.5528135024
C        1.1217869391    0.3453356131    0.5089160721
C        2.1446417033    1.0133686579    1.3920490474
C       -1.2333243779    0.0956850867   -0.3560487604
C        0.5418500389   -1.4087658135   -1.1845688544
C        4.4113165797    1.3430212848    2.3127804902
C        3.7584601708   -0.9056689105    1.4619613596
N        1.5279672549   -0.6479666741   -0.4211244648
N       -0.5465450309   -0.4949247061   -1.5122495278
N        3.4381019377    0.5096972974    1.6124575641
O        1.8489117084    2.0521185234    1.9901319308
H       -0.5180815854    1.4922474757    1.2258016009
H       -1.7919325473   -0.6748511963    0.1854546031
H       -1.9362745387    0.8673850139   -0.6865383887
H        0.9952394694   -1.7878250122   -2.1058349592
H        0.1744223091   -2.2558030711   -0.5954530060
H        4.1788032850    1.3810117325    3.3817370021
H        4.4014012245    2.3610583007    1.9090950038
H        5.4232299346    0.9470295079    2.1816121363
H        4.4506928884   -1.2213232474    2.2490202494
H        4.2228504004   -1.0946669093    0.4897604950
H        2.8638701496   -1.5266755242    1.5713875826
H        2.4700038068   -0.5931419957   -0.7927405305
H       -1.2000090693   -0.9076166814   -2.1694038176
24   

C       -0.1970211336    0.7507448650    0.4813341498
C        1.1042245176    0.2970928691    0.5409100342
C        2.1042574706    0.9249758844    1.4829106116
C       -1.2104756123    0.1805015771   -0.4623432181
C        0.4715609188   -1.5172902118   -1.0725698324
C        4.3610127723    1.3475591499    2.3893575103
C        3.8835272744   -0.8491309408    1.3236089454
N        1.4769265405   -0.7813416147   -0.3107451806
N       -0.5091222444   -0.5412807455   -1.5316782571
N        3.4395214675    0.5056948200    1.6300613154
O        1.7487609024    1.8587199194    2.2082778835
H       -0.4903723976    1.5898010768    1.1013615175
H       -1.8716842284   -0.5014945457    0.0823787985
H       -1.8169755818    0.9880414493   -0.8853167910
H        0.9388802814   -2.0051462778   -1.9336998574
H       -0.0010262315   -2.2805025078   -0.4450391153
H        4.1633297243    1.2551636205    3.4619888946
H        4.2492456971    2.3966011891    2.0951134609
H        5.3987137136    1.0611869516    2.1914843160
H        4.6862700602   -1.1470915618    2.0056438551
H        4.2587458970   -0.9103472053    0.2979366533
H        3.0742459905   -1.5705151801    1.4728285087
H        2.4314866668   -0.8105836459   -0.6494972505
H       -1.1566293149   -0.9448638428   -2.2003215939
