18   

C        4.6331489509    1.3459722642    0.7538183071
C        5.8139907265    1.1162717009    0.0578439184
C        3.5008874128    0.5758692131    0.4819786556
C        5.8525191723    0.1176164085   -0.9129831840
C        3.5148812075   -0.4449182471   -0.4880718959
C        4.7243040713   -0.6614946648   -1.1988640929
C        2.2836726517   -1.2595635898   -0.7409971179
C        0.9255131776   -0.7892421043   -0.2311505331
O        2.3102354744   -2.3131859061   -1.3628699842
O        4.8394502340   -1.6001087020   -2.1827804705
H        4.5933087815    2.1217186231    1.5103739252
H        6.6964254074    1.7112887612    0.2677202436
H        2.6063407866    0.7855760633    1.0569106738
H        6.7762154340   -0.0470308290   -1.4536463061
H        0.7670970204    0.2586430685   -0.4992969698
H        0.8758647031   -0.9036682534    0.8547635333
H        0.1296915195   -1.3874176564   -0.6844092040
H        5.7506973763   -1.6457513724   -2.5119243877
18   

C        4.6560719983    1.3455003358    0.7980864327
C        5.8087066239    1.1619623177    0.0407734023
C        3.5350944513    0.5453601376    0.5677991315
C        5.8294910986    0.1814569768   -0.9507644627
C        3.5390812337   -0.4554416673   -0.4197620245
C        4.7108291573   -0.6248424282   -1.1941939963
C        2.3294741382   -1.3189268933   -0.6179731070
C        0.9406437101   -0.7750284807   -0.3057243106
O        2.4123600260   -2.4711546229   -1.0185709282
O        4.7846255283   -1.5399449766   -2.2039744899
H        4.6309738113    2.1060787348    1.5704842369
H        6.6827894169    1.7791408287    0.2191878421
H        2.6587921280    0.7057303186    1.1858788186
H        6.7286193912    0.0543171830   -1.5406950882
H        0.8585712151    0.2596014279   -0.6492619063
H        0.7583989369   -0.8184454157    0.7710675150
H        0.1829331747   -1.3739965294   -0.8189730083
H        5.6888866264   -1.5978300918   -2.5507693042
18   

C        4.7236059017    1.2900806369    0.8579609008
C        5.8289615005    1.1404000243    0.0240818598
C        3.5968832321    0.4855203685    0.6732469358
C        5.7968165058    0.1891054508   -0.9967348428
C        3.5526894013   -0.4797736068   -0.3443829146
C        4.6707239967   -0.6193332395   -1.1921515949
C        2.3474367075   -1.3659700565   -0.4960315700
C        0.9502040489   -0.7750503225   -0.3656897571
O        2.4567350047   -2.5681761037   -0.6810882383
O        4.6741181115   -1.5111447811   -2.2252948257
H        4.7408017301    2.0260546279    1.6540197263
H        6.7074983597    1.7604684644    0.1669971754
H        2.7546132516    0.6093642013    1.3450198031
H        6.6581161389    0.0867102607   -1.6450196506
H        0.8937598969    0.1644801538   -0.9218807350
H        0.7197859142   -0.5888421920    0.6860964700
H        0.2119787976   -1.4706905372   -0.7747290054
H        5.5609874064   -1.5831981457   -2.6129038783
18   

C        4.7769615724    1.2316690740    0.9525417927
C        5.8308165689    1.1371718182    0.0451624879
C        3.6523811039    0.4162228940    0.8024124374
C        5.7505626818    0.2283880344   -1.0123180518
C        3.5638512259   -0.4991184923   -0.2538192506
C        4.6258028348   -0.5893715119   -1.1706775832
C        2.3643005783   -1.4049516050   -0.3769963154
C        0.9631906658   -0.8087623171   -0.4041813129
O        2.4840695210   -2.6188476484   -0.3551165292
O        4.5692324948   -1.4487951352   -2.2294477394
H        4.8335867835    1.9317161299    1.7785918144
H        6.7073850881    1.7655607056    0.1612312234
H        2.8511565467    0.4895706139    1.5296132359
H        6.5719453383    0.1659715445   -1.7151802911
H        0.7939809323   -0.3288130850   -1.3717159542
H        0.8460016045   -0.0657395202    0.3877127203
H        0.2178471359   -1.5966132900   -0.2633215600
H        5.4326237869   -1.5044310904   -2.6700834790
18   

C        4.8386257281    1.1837745861    1.0318077415
C        5.8391248277    1.1234479730    0.0622276048
C        3.7104653072    0.3667376636    0.9204153735
C        5.7020285772    0.2466482966   -1.0169377450
C        3.5680907327   -0.5143591444   -0.1557819405
C        4.5729332685   -0.5718902108   -1.1338143946
C        2.3581691156   -1.4159331338   -0.2556184048
C        0.9906649181   -0.8060596118   -0.5242997930
O        2.4380934431   -2.6069932263   -0.0090216900
O        4.4535331390   -1.4055748584   -2.2079335270
H        4.9388035476    1.8590086673    1.8741959726
H        6.7180228529    1.7535686543    0.1470482745
H        2.9441390792    0.4108631968    1.6870672334
H        6.4818007436    0.2098619433   -1.7673925871
H        0.9020946527   -0.5743586984   -1.5889998341
H        0.8687356644    0.1144998700    0.0517290573
H        0.2026521640   -1.5106233372   -0.2442695084
H        5.2844429080   -1.4338338439   -2.7101018033
18   

C        4.9142367421    1.1369592993    1.1193396199
C        5.8512057707    1.1056343786    0.0868139496
C        3.7790521339    0.3245279131    1.0545416343
C        5.6429453924    0.2631490430   -1.0082885520
C        3.5701342767   -0.5278990587   -0.0328433599
C        4.5065762241   -0.5506181739   -1.0771577062
C        2.3326806703   -1.3957109205   -0.1114142168
C        1.0784385660   -0.8460172475   -0.7723219941
O        2.3184521221   -2.5209620057    0.3569035494
O        4.3134658611   -1.3497970699   -2.1669314473
H        5.0674404904    1.7880053801    1.9727148169
H        6.7346539489    1.7333022184    0.1344140522
H        3.0568450095    0.3492429872    1.8638800228
H        6.3722998894    0.2506650098   -1.8085871627
H        1.2780002036   -0.6567859818   -1.8303912404
H        0.7866785753    0.0903332721   -0.2900630399
H        0.2598382824   -1.5659182009   -0.6856040543
H        5.1000015024   -1.3407316485   -2.7372608970
18   

C        4.9701237568    1.0775133389    1.1664757848
C        5.8557073639    1.0796481152    0.0891757941
C        3.8243295764    0.2788919426    1.1243309099
C        5.5867962820    0.2831551361   -1.0270883790
C        3.5543983572   -0.5279086104    0.0145702431
C        4.4399971777   -0.5176556432   -1.0743652188
C        2.2910481144   -1.3567723676   -0.0306313630
C        1.1372969202   -0.9255123272   -0.9244364574
O        2.1822206524   -2.3746476185    0.6332516641
O        4.1962938662   -1.2792288091   -2.1808200119
H        5.1704862185    1.6926065924    2.0365916046
H        6.7469363915    1.6973331401    0.1191521979
H        3.1399477553    0.2782805602    1.9664977151
H        6.2787045999    0.2955174978   -1.8599785518
H        1.4640935772   -0.9008008137   -1.9669946754
H        0.8001102282    0.0722177054   -0.6322963363
H        0.3044947679   -1.6277958580   -0.8292808045
H        4.9509531013   -1.2383925281   -2.7917703138
18   

C        5.0275439258    1.0331201135    1.1988496205
C        5.8693797860    1.0699346235    0.0873066616
C        3.8679040532    0.2546136141    1.1683375815
C        5.5444626856    0.3277477523   -1.0519107534
C        3.5428392847   -0.4978245275    0.0325380724
C        4.3838304899   -0.4537562829   -1.0906134081
C        2.2553888184   -1.2841796603    0.0325155930
C        1.1591129197   -0.9687910974   -0.9756944827
O        2.0621335897   -2.1526924064    0.8700791312
O        4.0927668953   -1.1675914209   -2.2168891905
H        5.2720953589    1.6059341769    2.0863599395
H        6.7711740604    1.6724440858    0.1090976201
H        3.2161623902    0.2267323086    2.0359150092
H        6.2053686046    0.3665628509   -1.9088113831
H        1.4157838874   -1.3922631993   -1.9496846849
H        1.0486530876    0.1141996992   -1.0734575585
H        0.2091334745   -1.3948459859   -0.6416949376
H        4.8195655077   -1.0957418088   -2.8582406057
18   

C        5.0238361703    0.8999921091    1.2659797011
C        5.8416194165    0.9702154244    0.1386765397
C        3.8345499052    0.1689903836    1.2190311664
C        5.4646539793    0.3073212801   -1.0328081909
C        3.4536816969   -0.5034781805    0.0479737210
C        4.2747115905   -0.4279479456   -1.0907943602
C        2.1348636819   -1.2265628262    0.0548249545
C        1.1353179324   -1.0626733773   -1.0823055130
O        1.8274942007   -1.9241431991    1.0129604984
O        3.9434473319   -1.0671396694   -2.2503999269
H        5.3089641124    1.4111591078    2.1786758396
H        6.7657755632    1.5371829800    0.1735389027
H        3.2018534762    0.1189402801    2.0999340530
H        6.1098013770    0.3710747704   -1.9001601326
H        1.3051682480   -1.8365740111   -1.8352861635
H        1.2542595993   -0.0793808230   -1.5448700241
H        0.1156782303   -1.1523488050   -0.6980622257
H        4.6519626871   -0.9606617241   -2.9073072979
18   

C        5.0770859336    0.8538707479    1.2798328106
C        5.8709491176    0.9418143267    0.1379458961
C        3.8596999682    0.1714424311    1.2314795050
C        5.4437162015    0.3423580347   -1.0495379593
C        3.4201689122   -0.4326382186    0.0407205300
C        4.2257620262   -0.3456371995   -1.1122392226
C        2.0824425880   -1.1168180306    0.0737127527
C        1.1450247118   -1.1282066551   -1.1274519329
O        1.6868705618   -1.6163858788    1.1214236485
O        3.8643381129   -0.9313094936   -2.2907165844
H        5.4021335717    1.3140637082    2.2062138753
H        6.8168008059    1.4716840040    0.1745174613
H        3.2517159042    0.1132798077    2.1292577577
H        6.0745882925    0.4160722804   -1.9265513627
H        1.3817877964   -1.9792812014   -1.7712183366
H        1.2539717117   -0.2015532038   -1.6969044654
H        0.1083068381   -1.2131499294   -0.7905180632
H        4.5637841201   -0.8096122321   -2.9547052293
18   

C        5.0830098231    0.7998025651    1.3193374514
C        5.8609611817    0.8893163280    0.1682669607
C        3.8307047940    0.1846207058    1.2692036549
C        5.3831669593    0.3571648167   -1.0306945181
C        3.3329246644   -0.3496816010    0.0655402595
C        4.1299666363   -0.2644106670   -1.0982630810
C        1.9669680649   -0.9783938683    0.1183463243
C        1.1066664078   -1.2078727368   -1.1190034232
O        1.4736853313   -1.2520117208    1.2086311714
O        3.7350380463   -0.7845957236   -2.2960989917
H        5.4471614589    1.2072294341    2.2558395839
H        6.8338620244    1.3675767859    0.2066520536
H        3.2452422454    0.1312731503    2.1820301227
H        6.0042438491    0.4300994304   -1.9147457271
H        1.4613433451   -2.0904134516   -1.6576422504
H        1.1513420447   -0.3346737960   -1.7748358884
H        0.0656042302   -1.3687660202   -0.8255542858
H        4.4289762422   -0.6537208844   -2.9640896592
18   

C        5.1368197599    0.7417162927    1.3248051820
C        5.9095594526    0.8403127839    0.1720257160
C        3.8570325086    0.1876727448    1.2623507863
C        5.3966425039    0.3825851970   -1.0421945072
C        3.3234184494   -0.2794076574    0.0452144916
C        4.1148238361   -0.1761445697   -1.1239601854
C        1.9337491216   -0.8573044862    0.0966843421
C        1.2005330248   -1.4089624691   -1.1209809692
O        1.3396025054   -0.8958518344    1.1707119722
O        3.6851390559   -0.6003469122   -2.3470148851
H        5.5263533489    1.0945460026    2.2731866203
H        6.9041073043    1.2707883894    0.2201115330
H        3.2829163645    0.1269120854    2.1818019806
H        6.0121750649    0.4673545082   -1.9290721616
H        1.7624867865   -2.2430101549   -1.5489830318
H        1.0763611332   -0.6226346638   -1.8699042173
H        0.2104203108   -1.7704836939   -0.8294345006
H        4.3713632929   -0.4426378868   -3.0171390163
18   

C        5.1399416919    0.6652487059    1.3459473634
C        5.9096647164    0.7742045359    0.1910281335
C        3.8354123420    0.1734434769    1.2713793555
C        5.3676156848    0.3938530204   -1.0379942879
C        3.2784060294   -0.2209447857    0.0400085805
C        4.0604104426   -0.1001399468   -1.1308297943
C        1.8700857630   -0.7495810726    0.0729884152
C        1.2736311316   -1.6023571741   -1.0409366626
O        1.1817370469   -0.5623994570    1.0720154821
O        3.5850169660   -0.4302228409   -2.3663127717
H        5.5512228056    0.9613323389    2.3044992068
H        6.9234471851    1.1558851260    0.2485399214
H        3.2594732240    0.0975902378    2.1886606360
H        5.9783431490    0.4912402822   -1.9268869623
H        2.0021431282   -2.3446658991   -1.3768481774
H        0.9848881946   -0.9648488543   -1.8805891522
H        0.3865910390   -2.1271241861   -0.6754384148
H        4.2577059418   -0.2491427792   -3.0442430952
18   

C        4.6333768175    1.9329424019    0.1016786078
C        5.7639059349    1.1271494424   -0.0185698501
C        3.3673870202    1.3994544985   -0.1487914753
C        5.6227471505   -0.2114805853   -0.3929188153
C        3.2150583195    0.0531707736   -0.5233993714
C        4.3596343162   -0.7594388386   -0.6478089355
C        1.8128965991   -0.4423375250   -0.7404684171
C        1.3901683073   -1.8645637071   -0.3936949054
O        0.9522594038    0.3377799710   -1.1334834336
O        4.2780505614   -2.0667810590   -1.0307560459
H        4.7339946933    2.9734952057    0.3893264744
H        6.7477676169    1.5406581640    0.1757532798
H        2.4961276623    2.0397654403   -0.0490805947
H        6.5116931839   -0.8227483234   -0.4862602099
H        1.9515962970   -2.2216955929    0.4735349374
H        1.5804914128   -2.5231805145   -1.2450589846
H        0.3233530138   -1.8887810404   -0.1552784468
H        5.1679976781   -2.4495711170   -1.1106417374
18   

C        4.6038665191    1.9101860006    0.1632564715
C        5.7455798923    1.1228543435    0.0179766459
C        3.3485204632    1.3794519201   -0.1423504704
C        5.6254972834   -0.1946666190   -0.4332677228
C        3.2220406354    0.0596335647   -0.6014095864
C        4.3721697899   -0.7365978040   -0.7421821840
C        1.8346911296   -0.4603524828   -0.8603795496
C        1.3845613122   -1.8153209192   -0.3307931430
O        1.0270533710    0.2333182828   -1.4650992017
O        4.2955817038   -2.0249552539   -1.1863185961
H        4.6882542024    2.9331521679    0.5125742051
H        6.7213269888    1.5335920386    0.2545023287
H        2.4634031312    1.9974366766   -0.0263277822
H        6.5209616316   -0.7939294774   -0.5410023777
H        1.9340127353   -2.0605325104    0.5818689040
H        1.5752747304   -2.5855254222   -1.0825675011
H        0.3151879884   -1.7905125196   -0.1045748401
H        5.1867920202   -2.4005923117   -1.2837860293
18   

C        4.5677682000    1.8358735509    0.2279250270
C        5.7211097791    1.0771152936    0.0291872125
C        3.3209929032    1.3122003974   -0.1228594898
C        5.6201360016   -0.2049570583   -0.5187119476
C        3.2153089642    0.0315659743   -0.6802449048
C        4.3744688098   -0.7369887972   -0.8717092996
C        1.8424448056   -0.5069535345   -0.9982155475
C        1.3227358829   -1.7549965676   -0.2980263938
O        1.1161397421    0.0785887642   -1.7873617398
O        4.3077429833   -1.9915240221   -1.4050438557
H        4.6371519682    2.8311649267    0.6523985438
H        6.6905323604    1.4820474895    0.2993330076
H        2.4257928381    1.9064027631    0.0313099210
H        6.5229384545   -0.7844249542   -0.6661800494
H        1.5658833603   -1.7084861216    0.7665510278
H        1.7834343867   -2.6454578174   -0.7323371419
H        0.2375702282   -1.8244696378   -0.4126313241
H        5.2019927002   -2.3428405820   -1.5520980495
18   

C        4.6407452473    1.8267863918    0.3526210936
C        5.8060269370    1.0973515731    0.1184314392
C        3.4030623344    1.3038490689   -0.0309010369
C        5.7247281157   -0.1547730413   -0.4966321593
C        3.3155562498    0.0559228380   -0.6556509592
C        4.4872822263   -0.6831423355   -0.8816550334
C        1.9654372511   -0.5117718287   -1.0299057302
C        1.3704527758   -1.6467046254   -0.2089594735
O        1.3447822698   -0.0803508760   -1.9876716388
O        4.4351907954   -1.9127836220   -1.4723311460
H        4.6941748038    2.7990208824    0.8295826356
H        6.7687041160    1.5009333908    0.4135539583
H        2.4994924093    1.8767642136    0.1506254532
H        6.6351819656   -0.7148091791   -0.6699236854
H        1.2538532273   -1.3262846730    0.8294245971
H        2.0321264416   -2.5158534416   -0.2421396196
H        0.3926790257   -1.9285691093   -0.6093678498
H        5.3327484435   -2.2407707142   -1.6491173186
18   

C        4.6248892721    1.7745559126    0.4295401053
C        5.8108742257    1.0983048784    0.1447062905
C        3.4005361016    1.2315423130    0.0308123680
C        5.7631400355   -0.1218561473   -0.5345106004
C        3.3466797739    0.0168816565   -0.6579505931
C        4.5387636021   -0.6692658128   -0.9339329445
C        2.0198763456   -0.5797356977   -1.0753633099
C        1.2887906112   -1.5108247386   -0.1210728321
O        1.5206570610   -0.3175839679   -2.1559872953
O        4.5151575267   -1.8730339939   -1.5773387349
H        4.6524069314    2.7216789199    0.9565906483
H        6.7633749484    1.5175502186    0.4507925492
H        2.4818685291    1.7654946862    0.2502824524
H        6.6885636018   -0.6432195868   -0.7451355250
H        1.1277890135   -1.0074185696    0.8355404228
H        1.8905387381   -2.4085648807    0.0435632633
H        0.3221838875   -1.8001818494   -0.5427710753
H        5.4178808126   -2.1576900213   -1.7965588323
18   

C        4.6013855956    1.6757170324    0.5019553450
C        5.8138783877    1.0740237703    0.1664643022
C        3.3982152900    1.0905254321    0.0986739630
C        5.8143188514   -0.1140582183   -0.5688152066
C        3.3916856427   -0.0971020480   -0.6391016682
C        4.6117914170   -0.7049139094   -0.9729664250
C        2.0871838922   -0.7101778706   -1.0964170613
C        1.1356210697   -1.2997714229   -0.0663161285
O        1.7301550443   -0.6361832941   -2.2595425139
O        4.6386701917   -1.8760921144   -1.6734219062
H        4.5922985869    2.5995605626    1.0694278474
H        6.7500530155    1.5271054458    0.4746888115
H        2.4605692349    1.5735497213    0.3525744044
H        6.7604453619   -0.5765525344   -0.8208543452
H        1.0916674429   -0.6580180168    0.8170443349
H        1.4931199446   -2.2895006696    0.2299045332
H        0.1322829322   -1.3936058375   -0.4909323421
H        5.5465804644   -2.0886075728   -1.9453014685
18   

C        4.5873769403    1.5891787128    0.5710029948
C        5.8160857254    1.0573665069    0.1832782709
C        3.4013773660    0.9691332496    0.1695989583
C        5.8506140486   -0.0972988378   -0.6016725415
C        3.4262035409   -0.1879580558   -0.6189376908
C        4.6666469802   -0.7254584956   -1.0048189812
C        2.1378869441   -0.8202344679   -1.0829247623
C        1.0683741329   -1.1964382317   -0.0661122025
O        1.8879807669   -0.9476320896   -2.2702253857
O        4.7369425689   -1.8663151637   -1.7506790917
H        4.5521594770    2.4877255943    1.1768116443
H        6.7387814607    1.5386786337    0.4893626859
H        2.4546726556    1.4086709570    0.4640784088
H        6.8099936832   -0.5059994840   -0.8934523461
H        0.9027593283   -0.3783771987    0.6383449280
H        1.3913758994   -2.0829373585    0.4860615552
H        0.1274390376   -1.4194583582   -0.5769825751
H        5.6446560898   -2.0152493302   -2.0614428707
18   

C        4.5896341876    1.4929910141    0.6481590847
C        5.8229804710    1.0375990789    0.1887726742
C        3.4169433033    0.8414435645    0.2592721180
C        5.8756164196   -0.0743789592   -0.6531174464
C        3.4536729761   -0.2734179294   -0.5920953886
C        4.7060734410   -0.7363168704   -1.0453526305
C        2.1758319672   -0.9312762710   -1.0345160578
C        1.0531050196   -1.1592909845   -0.0315611890
O        1.9925979962   -1.2542376615   -2.1979606306
O        4.8118148554   -1.8395188628   -1.8419021416
H        4.5398555488    2.3567567018    1.3016830342
H        6.7356600900    1.5434716928    0.4851597806
H        2.4673310063    1.2240328604    0.6168936039
H        6.8402145037   -0.4256926294   -0.9976817201
H        0.5363876188   -0.2181183553    0.1714440002
H        1.4657305144   -1.5555582207    0.9000847534
H        0.3356778807   -1.8805306517   -0.4332035160
H        5.7172439796   -1.9336582161   -2.1785106079
18   

C        4.5826632147    1.4237068739    0.7108281621
C        5.8176382436    1.0461818168    0.1930187424
C        3.4274337081    0.7374722381    0.3308361422
C        5.8899833798   -0.0242298833   -0.6980374800
C        3.4775569990   -0.3374059328   -0.5740333023
C        4.7395327197   -0.7229813565   -1.0840153978
C        2.2133872515   -1.0303569648   -0.9864765866
C        1.0264261757   -1.0897589053   -0.0326453717
O        2.0871653499   -1.5527736810   -2.0846796626
O        4.8844434246   -1.7840944953   -1.9299148302
H        4.5174260395    2.2542804604    1.4048018607
H        6.7168346419    1.5792298954    0.4829621413
H        2.4800889429    1.0673826411    0.7423461885
H        6.8577378488   -0.3155376487   -1.0868880329
H        0.4810626138   -0.1429476604   -0.0592287919
H        1.3745465036   -1.2829996688    0.9855319366
H        0.3512049992   -1.8974031539   -0.3294581565
H        5.7934630615   -1.8355863373   -2.2650853408
18   

C        4.6207900437    1.3814590700    0.7150208323
C        5.8377374008    1.0479810353    0.1324740527
C        3.4647988220    0.6795402156    0.3686603171
C        5.8910279010    0.0068742429   -0.7919491695
C        3.4892121383   -0.3712249734   -0.5686232400
C        4.7405654526   -0.7083133166   -1.1476939825
C        2.2250232610   -1.0910941863   -0.9251415909
C        0.9827395979   -0.9537663779   -0.0512910131
O        2.1364666913   -1.8138890230   -1.9086446949
O        4.8848073183   -1.7305616502   -2.0401900315
H        4.5697222936    2.1894924299    1.4362837768
H        6.7377644787    1.5924496201    0.3975958215
H        2.5379597870    0.9820618940    0.8421447704
H        6.8462522351   -0.2483905994   -1.2335671569
H        0.5472085824    0.0407828497   -0.1775931212
H        1.2438556284   -1.1115399090    0.9984648943
H        0.2392608034   -1.7023747731   -0.3401062566
H        5.7951709346   -1.7736718208   -2.3721084797
18   

C        4.6296201143    1.3631536857    0.7326776609
C        5.8322206645    1.0850063761    0.0954468839
C        3.4864214599    0.6250096212    0.4213919426
C        5.8829987847    0.0661348510   -0.8527035024
C        3.5073892624   -0.4113221858   -0.5332159435
C        4.7452473962   -0.6839004840   -1.1766033423
C        2.2589105601   -1.1798849009   -0.8387197265
C        0.9501179983   -0.8554549455   -0.1252594166
O        2.2285397163   -2.0876898648   -1.6594186106
O        4.8890443057   -1.6621162452   -2.1171690694
H        4.5801025630    2.1545148041    1.4723126411
H        6.7226535103    1.6565268982    0.3347955809
H        2.5753353132    0.8835827839    0.9479434375
H        6.8262915093   -0.1410744458   -1.3425142614
H        0.6576813932    0.1772123537   -0.3326086195
H        1.0667095034   -0.9982211653    0.9522098159
H        0.1566414009   -1.5196082672   -0.4802674428
H        5.8023436373   -1.6989123383   -2.4413938520
