27

C      7.09113   -6.45201   -0.25950
C      8.02461   -6.54185   -1.29636
C      6.35351   -5.28320   -0.09764
C      2.03328   -2.43638    1.29120
C      0.83969   -2.15529    1.94137
C      8.20640   -5.46385   -2.16335
C      1.30046    0.21812    1.69747
C      2.88911   -1.41664    0.82485
C      6.52724   -4.17435   -0.95066
C      0.48107   -0.81840    2.13842
C      2.50014   -0.07935    1.04379
C      7.46616   -4.28965   -1.99449
C      5.69745   -2.98926   -0.66617
C      4.11529   -1.85849    0.15492
N      4.54621   -3.09294    0.09287
N      5.97199   -1.75655   -1.04717
O      4.91691   -0.99998   -0.50478
Cl    -1.01792   -0.43427    2.95142
Cl     3.47046    1.28358    0.54452
Br     7.77887   -2.90296   -3.27570
H      6.93887   -7.28708    0.41823
H      8.60853   -7.44726   -1.43784
H      5.62239   -5.19996    0.69898
H      2.33362   -3.46477    1.12320
H      0.19393   -2.95476    2.28848
H      8.92021   -5.52923   -2.97761
H      1.01696    1.25190    1.85911
