28

C     -0.79220    0.33861   -4.95147
C     -0.19202   -0.61721   -5.80519
C     -0.81330    0.13224   -3.58784
C      0.37248   -1.75643   -5.27007
C      0.29262   -2.41370   -1.08340
C      0.90096   -3.37100   -1.92497
C     -0.23754   -1.02887   -2.99711
C      0.37067   -1.99752   -3.86839
C     -0.26293   -1.25360   -1.58504
C      0.94675   -3.17201   -3.28852
C     -2.45853   -0.20681   -0.54057
C     -2.23566   -0.08390    0.98490
C     -0.90329   -0.25088   -0.65789
N     -0.84100   -0.57294    0.79497
O      1.55509   -4.14448   -4.04652
H     -1.23997    1.23413   -5.37436
H     -0.18020   -0.45595   -6.87965
H     -1.28649    0.87139   -2.95010
H      0.81538   -2.47343   -5.95935
H      0.25185   -2.58274   -0.01215
H      1.34221   -4.27393   -1.51307
H     -2.91091   -1.15721   -0.83109
H     -2.97416    0.61495   -1.04180
H     -2.30116    0.95760    1.33005
H     -2.84484   -0.71568    1.63955
H     -0.51752    0.75746   -0.87298
H     -0.12855   -0.05771    1.30844
H      1.57370   -3.87513   -4.97644
