37

C      0.50440   -3.81199    3.31336
C      1.27715   -4.28142    4.38456
C      0.60474   -4.39470    2.04370
C      2.26142   -9.57830   -3.50985
C      2.79138  -10.05867   -4.72196
C      2.16739   -5.35048    4.21069
C      2.42246   -7.26089   -4.27061
C      1.49889   -5.45285    1.86649
C      2.07254   -8.20810   -3.27099
C      3.11731   -9.11605   -5.67748
C      2.93300   -7.74784   -5.45024
C      2.25197   -5.90950    2.94571
C      1.82458   -6.25323    0.64868
C      1.53549   -7.73818   -1.97142
C      3.93830   -8.00117   -7.43706
C      0.92626   -8.73392   -1.02039
N      2.71086   -7.20295    0.76200
N      1.60745   -6.46029   -1.76353
N      1.16491   -5.98948   -0.51587
O      4.68154   -6.94550    2.42227
O      2.79782   -8.54090    2.96946
O      3.61582   -9.31452   -6.94142
O      3.30715   -7.04256   -6.57600
S      3.26227   -7.29140    2.36396
H     -0.18442   -2.98696    3.47046
H      1.18206   -3.81451    5.36081
H     -0.01443   -4.02466    1.23052
H      2.01990  -10.30106   -2.73921
H      2.94065  -11.11896   -4.89733
H      2.76671   -5.72692    5.03422
H      2.28923   -6.20041   -4.09479
H      5.02703   -7.86283   -7.40460
H      3.54668   -7.89333   -8.45066
H      1.70558   -9.23874   -0.44279
H      0.26811   -8.23144   -0.31050
H      0.34596   -9.47992   -1.56771
H      0.82664   -5.03773   -0.60138
