23

C     -1.00646    2.52802    0.32943
C     -1.38730    3.71968    0.95817
C     -0.42884    1.58528    2.47979
C     -0.52698    1.45388    1.08636
C     -1.29533    3.83748    2.34260
C     -0.81354    2.76508    3.11238
C     -1.30001   -0.88456    0.12955
C     -0.58777   -1.10926   -1.22534
C     -0.16773    0.14522    0.43165
N      0.11770    0.18773   -1.02925
O     -1.64527    4.97160    3.05975
O     -0.71189    2.87566    4.47562
H     -1.06657    2.42516   -0.74893
H     -1.75411    4.55854    0.36774
H     -0.05143    0.77130    3.09459
H     -2.26871   -0.39236    0.01965
H     -1.39075   -1.73619    0.80666
H      0.07401   -1.98704   -1.20105
H     -1.20646   -1.15283   -2.12790
H      0.63201   -0.34539    1.00774
H      1.10751    0.19086   -1.26937
H     -1.95004    5.65968    2.44843
H     -1.01620    3.76607    4.72348
