31

C     -3.58149   -2.66752    0.59142
C     -3.19974   -1.32104    0.66763
C     -2.65389   -3.66071    0.25192
C      0.67878   -4.59454   -3.34271
C      3.05292   -5.04563   -3.26031
C     -1.87831   -0.93511    0.40078
C      0.87691   -3.73450   -4.41684
C      3.26854   -4.16913   -4.32202
C     -1.33451   -3.27932   -0.00193
C      1.76528   -5.25412   -2.73816
C     -0.97720   -1.93455    0.07168
C      2.17375   -3.51684   -4.89169
C     -0.14410   -4.09710   -0.38042
C      1.63872   -6.19028   -1.61309
N      0.98606   -3.48133   -0.56650
N      0.75823   -6.35468   -0.68366
N     -0.30280   -5.44188   -0.57761
O      0.92168   -1.13790   -1.64888
O      1.55473   -1.35087    0.79191
S      0.77534   -1.80782   -0.35663
Cl     2.42590   -2.41398   -6.22728
H     -4.61173   -2.94482    0.79507
H     -3.93669   -0.56781    0.93150
H     -2.97492   -4.69704    0.18458
H     -0.32935   -4.76036   -2.98172
H      3.90235   -5.55734   -2.81457
H     -1.57284    0.10582    0.44827
H      0.03868   -3.22007   -4.87492
H      4.26884   -3.99369   -4.70422
H      2.43780   -6.92923   -1.53866
H     -1.05293   -5.85718   -0.03703
