32

C      0.57865   -5.20210   -0.23587
C     -0.00629   -1.12406   -1.46173
C     -0.76042   -5.30158    0.27754
C      0.17966   -0.80371   -0.08326
C      0.51721   -2.40951   -1.66104
C      0.75546   -6.36235   -0.93670
C     -1.51083   -4.30000    1.09962
C     -0.18667    0.43171    0.67455
C      0.61510   -3.27712   -2.87284
C      1.88044   -6.92331   -1.73704
C      1.53776   -4.06805   -0.04203
N      0.76918   -1.82696    0.52581
N     -1.32796   -6.43043   -0.08433
N      0.96855   -2.77852   -0.44135
N     -0.61175   -0.29750   -2.45488
O     -0.74380   -0.75401   -3.60402
O     -0.97880    0.83780   -2.11341
O     -0.36557   -7.11300   -0.85585
H     -1.69950   -3.39005    0.52156
H     -2.46666   -4.71977    1.41879
H     -0.93328   -4.00479    1.98037
H     -1.25995    0.62859    0.60544
H      0.09632    0.30744    1.72198
H      0.31942    1.30768    0.26008
H      0.68902   -2.66044   -3.76738
H      1.48173   -3.93930   -2.81145
H     -0.27970   -3.90113   -2.97192
H      2.24155   -7.85916   -1.29879
H      1.55497   -7.13736   -2.76001
H      2.71494   -6.21997   -1.77680
H      1.80442   -3.93758    1.00876
H      2.46335   -4.24432   -0.59798
