32

C      7.90543   -3.84845    4.44949
C      0.55482   -1.24617    2.14767
C      0.64452   -0.40445    1.03523
C      1.72112   -1.75507    2.71408
C      1.89633   -0.07695    0.51039
C      9.23533   -3.93835   -0.18393
C      9.00233   -3.73564   -1.51188
C      7.05765   -3.08389   -0.10206
C      2.98265   -1.43580    2.17964
C      8.11774   -3.56544    0.65721
C      3.08502   -0.57721    1.06203
C      4.16506   -2.01592    2.84121
C      6.05593   -2.90564    3.16124
C      8.21927   -3.73819    2.08682
C      7.39110   -3.48918    3.15244
C      4.40483   -0.16217    0.45190
N      8.35226   -4.15017    5.48246
N      5.31940   -2.41833    2.19303
N      4.18862   -2.23565    4.14240
O      5.43757   -2.83120    4.36160
S      7.41071   -3.08618   -1.77911
H     -0.41285   -1.50578    2.56782
H     -0.25569    0.00066    0.58029
H      1.66966   -2.41386    3.57530
H      1.95782    0.59157   -0.34515
H     10.16645   -4.33956    0.20398
H      9.66223   -3.92652   -2.34816
H      6.10661   -2.73572    0.27236
H      9.17095   -4.17163    2.38669
H      5.17251    0.02156    1.20642
H      4.79399   -0.93788   -0.21538
H      4.27773    0.74866   -0.13920
