27

C      6.82929   -6.58979   -0.47032
C      8.17165   -6.47537   -0.84384
C      6.05456   -5.44250   -0.32924
C      2.12613   -2.48035    1.79370
C      0.93942   -2.21782    2.46397
C      8.72602   -5.21454   -1.06694
C      0.77885   -0.09762    1.28753
C      2.67567   -1.57392    0.86305
C      6.58575   -4.15756   -0.56195
C      0.27232   -1.01717    2.20302
C      1.97544   -0.37481    0.61946
C      7.94284   -4.06451   -0.92823
C      5.65954   -3.02268   -0.39431
C      3.93438   -1.97963    0.23169
N      4.49428   -3.15801    0.33797
N      5.81095   -1.82843   -0.93372
O      4.66427   -1.12867   -0.51526
Cl    -1.22264   -0.65817    3.03470
Cl     2.52225    0.82624   -0.52374
Br     8.83377   -2.39629   -1.22048
H      6.38920   -7.56636   -0.29011
H      8.79137   -7.36064   -0.95779
H      5.01309   -5.51463   -0.03565
H      2.66482   -3.40299    1.97973
H      0.53620   -2.92676    3.17914
H      9.76974   -5.11586   -1.34578
H      0.25211    0.82851    1.08740
