37

C      6.11304   -7.32779   -0.07761
C      6.47106   -7.18350    1.26858
C      4.88217   -6.86219   -0.55669
C      2.97757   -7.41093   -4.64830
C      3.42003   -7.98363   -5.84841
C      5.60747   -6.54049    2.16535
C      2.94276   -9.58812   -3.53500
C      3.99762   -6.25383    0.34264
C      2.73138   -8.18549   -3.49848
C      3.61437   -9.35592   -5.85690
C      3.38292  -10.13373   -4.72292
C      4.39412   -6.09063    1.67189
C      2.65712   -5.60978    0.14961
C      2.27432   -7.53658   -2.24669
C      3.94658  -11.50329   -6.40621
C      1.80567   -8.40544   -1.10614
N      2.13786   -4.97647    1.17277
N      2.33194   -6.23960   -2.22085
N      1.95302   -5.63220   -1.01221
O      2.45868   -5.95020    3.53666
O      3.68026   -3.82778    2.91284
O      4.06631  -10.14794   -6.88135
O      3.69155  -11.44967   -4.99278
S      3.13087   -5.12871    2.52819
H      6.80424   -7.80165   -0.76890
H      7.43145   -7.55428    1.61581
H      4.64661   -6.95923   -1.60799
H      2.81372   -6.34122   -4.59231
H      3.60406   -7.38206   -6.73267
H      5.88102   -6.38667    3.20492
H      2.78603  -10.22175   -2.67015
H      3.10232  -11.98806   -6.91242
H      4.88494  -12.03205   -6.58626
H      2.65544   -8.87257   -0.59680
H      1.25107   -7.82601   -0.36893
H      1.16216   -9.20437   -1.48206
H      1.27199   -4.88717   -1.11878
