27

C      7.76860   -6.13649   -2.63331
C      8.82622   -6.21568   -1.72245
C      6.75071   -5.20721   -2.42858
C      1.94179   -1.05628   -0.17843
C      0.90292   -0.43690    0.50479
C      8.86854   -5.35757   -0.62142
C      1.97775   -1.01919    2.60530
C      3.01529   -1.67327    0.49574
C      6.76549   -4.34250   -1.31929
C      0.93078   -0.42697    1.90180
C      3.01750   -1.63951    1.90681
C      7.84693   -4.42536   -0.42509
C      5.64486   -3.39860   -1.15886
C      4.06013   -2.30908   -0.30710
N      4.99981   -3.14823    0.03497
N      5.13750   -2.75717   -2.19271
O      4.07679   -2.02579   -1.63625
Cl    -0.36476    0.34282    2.78830
Cl     4.30110   -2.32825    2.86246
Br     8.02726   -3.22767    1.05870
H      7.73356   -6.79812   -3.49395
H      9.62363   -6.93968   -1.86638
H      5.91788   -5.14105   -3.12171
H      1.93073   -1.07374   -1.26270
H      0.08370    0.02837   -0.03273
H      9.69552   -5.40150    0.07948
H      1.99431   -0.99890    3.68911
