19   
Generated by ForceBalance from scan.xyz: Frame 1 of 24
C        0.2864808700   -1.1772538858    0.6306168389
C        2.6539554573   -0.7694516108    0.4855056044
C        0.4306777342   -1.3910140036    1.9882900456
C        2.7454119593   -0.9830827681    1.8525146576
C        1.4104712069   -0.8736013174   -0.1498429341
C        1.1656998246   -0.5942062121   -1.6246463529
C        1.7753752881   -1.5620930541    4.0366251386
N        1.6481156175   -1.2923281553    2.5816892258
N        2.2551292836   -0.6108878080   -2.4426087570
O        0.0315342872   -0.3168691132   -1.9867848493
H       -0.6924607706   -1.2283092532    0.1654860254
H        3.5554133769   -0.4919755447   -0.0498723075
H       -0.4044341799   -1.6362408856    2.6348796689
H        3.6825062404   -0.9071999823    2.3921673937
H        1.8835440623   -2.6371781439    4.1928509845
H        2.6489893428   -1.0393095971    4.4227419308
H        0.8840259509   -1.1975450562    4.5458124669
H        2.0714494121   -0.4828424788   -3.4333212097
H        3.1031625570   -1.1086180731   -2.2040910721
19   
Generated by ForceBalance from scan.xyz: Frame 2 of 24
C        0.3036069957   -1.1998505692    0.6072979876
C        2.6541597037   -0.6813740997    0.4985329791
C        0.4444883384   -1.4358605743    1.9615068048
C        2.7388618381   -0.9146095186    1.8628703975
C        1.4219075580   -0.8248216757   -0.1501957205
C        1.1976617185   -0.5066853582   -1.6174457621
C        1.7698829917   -1.5783132129    4.0240794527
N        1.6489918711   -1.2893637851    2.5722337959
N        2.2370359440   -0.7602820158   -2.4587974403
O        0.1281088356   -0.0171666395   -1.9498281489
H       -0.6700989095   -1.2824665927    0.1359380305
H        3.5449484096   -0.3582583959   -0.0298867210
H       -0.3841859628   -1.7359988042    2.5930151323
H        3.6647405355   -0.8048105300    2.4159203924
H        1.9104448862   -2.6517492125    4.1649852275
H        2.6225522684   -1.0346047638    4.4275765342
H        0.8624616865   -1.2497299783    4.5294688935
H        2.0716202675   -0.6046390743   -3.4486007140
H        2.9940292783   -1.3848613473   -2.2118034035
19   
Generated by ForceBalance from scan.xyz: Frame 3 of 24
C        0.3257686691   -1.2238159584    0.5927635433
C        2.6525227635   -0.5994296283    0.5227814144
C        0.4618355490   -1.4781599621    1.9442041298
C        2.7315485855   -0.8520684227    1.8838746445
C        1.4341119301   -0.7802619666   -0.1424254813
C        1.2309157939   -0.4273175026   -1.6034517451
C        1.7661361328   -1.5955867938    4.0212170655
N        1.6509262511   -1.2871363945    2.5729177042
N        2.1631952416   -0.8982640296   -2.4724962612
O        0.2641303491    0.2577412671   -1.9029720550
H       -0.6403042547   -1.3444341983    0.1140416070
H        3.5349208971   -0.2376584126    0.0050820148
H       -0.3590278246   -1.8293112093    2.5594163987
H        3.6457090022   -0.7133833814    2.4498323670
H        1.9369072923   -2.6664897448    4.1471608211
H        2.5985853658   -1.0337764642    4.4416799532
H        0.8447810151   -1.3013142740    4.5226506171
H        2.0191852245   -0.7118264792   -3.4601640887
H        2.8384815462   -1.6080577811   -2.2192013403
19   
Generated by ForceBalance from scan.xyz: Frame 4 of 24
C        0.3586359055   -1.2687973475    0.5748070860
C        2.6538446899   -0.5334452623    0.5455999447
C        0.4874364708   -1.5277773174    1.9261974272
C        2.7254356863   -0.7967486930    1.9046206107
C        1.4538003414   -0.7611299479   -0.1387378690
C        1.2674855389   -0.3691497741   -1.5917339724
C        1.7634069183   -1.6011701562    4.0225145440
N        1.6561003428   -1.2865882624    2.5750096997
N        2.0351645654   -1.0228903143   -2.4987149654
O        0.4465636648    0.5000621736   -1.8444964725
H       -0.5950866145   -1.4373873928    0.0858445588
H        3.5267827210   -0.1317295546    0.0413871554
H       -0.3248568707   -1.9233969643    2.5255957494
H        3.6252557767   -0.6246312490    2.4841984867
H        1.9701333477   -2.6661979883    4.1441443852
H        2.5700808340   -1.0134689793    4.4575005992
H        0.8260215317   -1.3424817098    4.5138838317
H        1.9131453294   -0.7964578944   -3.4810114453
H        2.6246647642   -1.8088236243   -2.2561151615
19   
Generated by ForceBalance from scan.xyz: Frame 5 of 24
C        0.4140868393   -1.3083822636    0.5436590505
C        2.6735843203   -0.4700953881    0.5799010020
C        0.5181863800   -1.5687697544    1.8975218759
C        2.7233527451   -0.7439036120    1.9366575895
C        1.5026591056   -0.7457761842   -0.1378624091
C        1.3479185484   -0.3091795893   -1.5821885613
C        1.7433433787   -1.6027610845    4.0245252737
N        1.6579082072   -1.2828461607    2.5768999411
N        1.9106401949   -1.1033772470   -2.5239326096
O        0.7301142436    0.7245254201   -1.7891792511
H       -0.5184619595   -1.5235229460    0.0324016506
H        3.5397188021   -0.0262523281    0.0999577623
H       -0.2924764772   -2.0013688933    2.4731433124
H        3.6011084777   -0.5412370814    2.5397057778
H        2.0040123017   -2.6559838509    4.1453290855
H        2.5051370257   -0.9756789733    4.4847953266
H        0.7807417714   -1.3985268777    4.4921802298
H        1.8079628015   -0.8428406183   -3.5001233976
H        2.3614119969   -1.9822330433   -2.3029685883
19   
Generated by ForceBalance from scan.xyz: Frame 6 of 24
C        0.8825351905   -0.0594729013    0.7027870194
C        2.5575343066   -1.7716340490    0.4327891822
C        0.8676138120   -0.3267182191    2.0610967679
C        2.5018541757   -2.0008801137    1.7955673965
C        1.7380838303   -0.7861865318   -0.1357525593
C        1.9094634904   -0.3965973490   -1.5921232880
C        1.6121799271   -1.5788034954    4.0445806005
N        1.6692013577   -1.2828339103    2.5905207136
N        1.0642500478   -0.9669575755   -2.4828358982
O        2.7980670764    0.4003592630   -1.8531006524
H        0.2419476568    0.7248469163    0.3129262207
H        3.2502392765   -2.3468957087   -0.1727506995
H        0.2282597899    0.2093581483    2.7532151874
H        3.1138074709   -2.7491121659    2.2868124652
H        0.9357454671   -2.4187014662    4.2144488040
H        2.6127677381   -1.8257237755    4.3978153498
H        1.2526764941   -0.6982618788    4.5745857466
H        1.1545368093   -0.7228585919   -3.4645183741
H        0.3472685538   -1.6283333884   -2.2128471046
19   
Generated by ForceBalance from scan.xyz: Frame 7 of 24
C        0.8746126593   -0.1262219122    0.6757125567
C        2.6301694856   -1.7640687441    0.4649591803
C        0.8460365669   -0.3738514535    2.0385379841
C        2.5534211514   -1.9818758542    1.8277523068
C        1.7751244053   -0.8284857026   -0.1353722821
C        1.9775249397   -0.4608081465   -1.5933599693
C        1.5997157979   -1.5687455340    4.0526171692
N        1.6739888484   -1.2891344663    2.5961002977
N        0.9964967806   -0.8231676166   -2.4546216147
O        3.0027934442    0.1377676600   -1.8826586910
H        0.2076698250    0.6239403767    0.2633537290
H        3.3655852837   -2.3065416867   -0.1199026074
H        0.1743979746    0.1475832213    2.7110394789
H        3.1860412162   -2.6968894023    2.3416653708
H        0.9506353490   -2.4303378673    4.2205912261
H        2.6014977338   -1.7754407526    4.4275462229
H        1.1989994833   -0.6951789147    4.5643348790
H        1.1113705820   -0.6036686748   -3.4394504076
H        0.2038304236   -1.3875028613   -2.1761804885
19   
Generated by ForceBalance from scan.xyz: Frame 8 of 24
C        0.8464008206   -0.1789808379    0.6543208252
C        2.6727184703   -1.7421919584    0.4822977493
C        0.8132809604   -0.4123079262    2.0205404151
C        2.5868031235   -1.9519325906    1.8452485917
C        1.7824719591   -0.8539114350   -0.1385412639
C        1.9917886041   -0.5166036486   -1.6026124916
C        1.5915269267   -1.5572117615    4.0546085946
N        1.6693869877   -1.2883528454    2.5961954437
N        0.9146193507   -0.6557219641   -2.4166198162
O        3.0989018831   -0.1275507391   -1.9432966865
H        0.1559716187    0.5412491943    0.2275632183
H        3.4407110236   -2.2499864981   -0.0915843459
H        0.1159873856    0.0914829662    2.6802239041
H        3.2420374510   -2.6344882896    2.3747364144
H        0.9991285684   -2.4587721404    4.2221527692
H        2.5991219407   -1.6923691765    4.4464357251
H        1.1248357342   -0.7077564624    4.5506059268
H        1.0407424603   -0.4750493315   -3.4079432090
H        0.0723198847   -1.1357492214   -2.1258354777
19   
Generated by ForceBalance from scan.xyz: Frame 9 of 24
C        0.8337299207   -0.2572101957    0.6146948343
C        2.7232161063   -1.7466119939    0.4919306493
C        0.7942779656   -0.4664159040    1.9850280663
C        2.6311485794   -1.9360271175    1.8574580016
C        1.8039498565   -0.9090017770   -0.1557662292
C        2.0105067482   -0.6317080283   -1.6332822940
C        1.5907453746   -1.5445133127    4.0469062963
N        1.6778417015   -1.2972964712    2.5850837375
N        0.8853041779   -0.5576089552   -2.3938100279
O        3.1516781658   -0.4627590263   -2.0365226188
H        0.1228394763    0.4316512876    0.1703327046
H        3.5165274401   -2.2281659850   -0.0699545323
H        0.0709564761    0.0218384098    2.6282015081
H        3.3076317607   -2.5811957947    2.4067253811
H        1.0137241167   -2.4544969406    4.2225890597
H        2.5966941931   -1.6550288969    4.4502495090
H        1.1034760126   -0.6962666539    4.5249648246
H        1.0093856115   -0.4302047294   -3.3936854767
H       -0.0023722423   -0.9296937513   -2.0803596151
19   
Generated by ForceBalance from scan.xyz: Frame 10 of 24
C        0.8162636401   -0.3239022777    0.6050655645
C        2.7682562658   -1.7324682569    0.5249146645
C        0.7665578010   -0.5184676005    1.9770520195
C        2.6671754576   -1.9074926183    1.8919437047
C        1.8253951989   -0.9403409831   -0.1446399812
C        2.0329836365   -0.7216045589   -1.6332575127
C        1.5799757018   -1.5345659281    4.0625597806
N        1.6777953879   -1.3023962081    2.5989053433
N        0.9233674615   -0.4361053863   -2.3689174360
O        3.1716457444   -0.7692005216   -2.0750859006
H        0.0846616630    0.3348675554    0.1493667806
H        3.5831582805   -2.1884362754   -0.0275026410
H        0.0136042199   -0.0553803098    2.6046237411
H        3.3632316208   -2.5166166211    2.4576498142
H        1.0146174786   -2.4510002554    4.2426195205
H        2.5833823805   -1.6262578133    4.4765176278
H        1.0761186412   -0.6880143026    4.5263797433
H        1.0551634702   -0.3487604626   -3.3721314942
H       -0.0098337491   -0.6628652133   -2.0497199545
19   
Generated by ForceBalance from scan.xyz: Frame 11 of 24
C        0.7842931523   -0.3873911720    0.5957805507
C        2.7927257701   -1.7130044336    0.5387954270
C        0.7371679031   -0.5694464013    1.9694007445
C        2.6975517573   -1.8719000463    1.9083965320
C        1.8227128695   -0.9666135046   -0.1441015965
C        2.0156619535   -0.8104768409   -1.6451238941
C        1.5837977039   -1.5238664666    4.0704379826
N        1.6801967508   -1.3033261256    2.6048781218
N        0.9601305889   -0.3259944160   -2.3572048916
O        3.1098116395   -1.0710546025   -2.1240941838
H        0.0230148920    0.2350380392    0.1384823188
H        3.6195715055   -2.1492734467   -0.0120038669
H       -0.0405889078   -0.1362021904    2.5879200468
H        3.4179236037   -2.4431204659    2.4831629032
H        1.0457909358   -2.4553218746    4.2572171220
H        2.5878561752   -1.5813498369    4.4888106741
H        1.0527344578   -0.6884436663    4.5240714838
H        1.0831181130   -0.2863200690   -3.3646298440
H        0.0067655438   -0.3848791635   -2.0241285844
19   
Generated by ForceBalance from scan.xyz: Frame 12 of 24
C        0.7330929598   -0.5094652467    0.5954289073
C        2.8258694750   -1.6912144859    0.5553124858
C        0.7019148775   -0.6692972010    1.9722093408
C        2.7506129225   -1.8248735998    1.9287108697
C        1.8080301234   -1.0241175393   -0.1405108236
C        1.9867015621   -0.9252420445   -1.6510636572
C        1.6230156622   -1.5133436337    4.0894317379
N        1.6992989028   -1.3152126105    2.6195976139
N        1.0220090917   -0.2819136544   -2.3565450078
O        2.9712247976   -1.4461300530   -2.1573177680
H       -0.0980639013    0.0140186607    0.1366473288
H        3.6679332403   -2.0967428873    0.0040814046
H       -0.1095454229   -0.2909047738    2.5833232026
H        3.5120344416   -2.3326094378    2.5101602596
H        1.1579471223   -2.4791792534    4.2963306367
H        2.6295638160   -1.4860596698    4.5049434869
H        1.0308854538   -0.7119255199    4.5285669800
H        1.1621095492   -0.1969742424   -3.3580249742
H        0.2535527253    0.2299844624   -1.9482012260
19   
Generated by ForceBalance from scan.xyz: Frame 13 of 24
C        0.6829829777   -0.5837034880    0.5767173092
C        2.8464313088   -1.6386974734    0.5454690528
C        0.6627215524   -0.7308290612    1.9551162199
C        2.7825342762   -1.7548914550    1.9212036896
C        1.7898761614   -1.0371292503   -0.1516997739
C        1.9236473073   -0.9700900334   -1.6656918770
C        1.6398041201   -1.4862103582    4.0797216998
N        1.7023509047   -1.3014275867    2.6073587712
N        1.0517816957   -0.1596717989   -2.3282856543
O        2.7572538240   -1.6790578508   -2.2106297366
H       -0.1848740229   -0.1424750281    0.0989728686
H        3.7036255674   -2.0169821390   -0.0017907403
H       -0.1734965480   -0.4054934864    2.5635279240
H        3.5736530074   -2.2080398173    2.5080290997
H        1.2231999540   -2.4711946075    4.2992200807
H        2.6448282759   -1.4048828596    4.4917321862
H        1.0103431625   -0.7095374394    4.5114381609
H        1.1933116402   -0.0782946635   -3.3307682840
H        0.5795971804    0.6135569397   -1.8782878054
19   
Generated by ForceBalance from scan.xyz: Frame 14 of 24
C        0.6472606038   -0.6382504817    0.5718442822
C        2.8527757230   -1.6056387331    0.5403093759
C        0.6367059516   -0.7767656307    1.9514040803
C        2.8000776367   -1.7083151899    1.9174279006
C        1.7707157047   -1.0494969952   -0.1556935997
C        1.8566075560   -1.0280604318   -1.6719123050
C        1.6534234162   -1.4748468378    4.0771809200
N        1.7030030095   -1.2957647260    2.6036198394
N        1.1315717341   -0.0691699481   -2.3111899880
O        2.5251321374   -1.8867064770   -2.2285636403
H       -0.2358843679   -0.2379342514    0.0853275846
H        3.7196744422   -1.9659158811   -0.0035872009
H       -0.2122045544   -0.4868469570    2.5602163503
H        3.6112730047   -2.1226839800    2.5054806045
H        1.2931536503   -2.4803384051    4.3033108253
H        2.6529585566   -1.3346200023    4.4868131314
H        0.9819286595   -0.7323478468    4.5055683550
H        1.2360479853   -0.0192453526   -3.3201712659
H        0.8155087162    0.7707996257   -1.8435032602
19   
Generated by ForceBalance from scan.xyz: Frame 15 of 24
C        0.6014738179   -0.6848093845    0.5733265652
C        2.8443662114   -1.5637041547    0.5265255163
C        0.6075597926   -0.8213074377    1.9531236304
C        2.8068310148   -1.6629951645    1.9043101108
C        1.7363018109   -1.0493131697   -0.1613831732
C        1.7729551764   -1.0606300802   -1.6783900612
C        1.6692793107   -1.4710982379    4.0730313891
N        1.6991808752   -1.2936993164    2.5987362765
N        1.2317293030    0.0176403587   -2.3048139555
O        2.2537013047   -2.0358475583   -2.2365147947
H       -0.2965453879   -0.3160024959    0.0886108262
H        3.7213779582   -1.8975220664   -0.0179014123
H       -0.2482292682   -0.5659692057    2.5677955461
H        3.6384223937   -2.0432595236    2.4868679624
H        1.3645634194   -2.4936075236    4.3044274047
H        2.6626096073   -1.2763946358    4.4755646170
H        0.9620585077   -0.7642784664    4.5042324529
H        1.2934790835    0.0451212665   -3.3179934909
H        1.0415931599    0.8874738142   -1.8237089182
19   
Generated by ForceBalance from scan.xyz: Frame 16 of 24
C        0.5489804597   -0.7298392462    0.5887153710
C        2.8275765630   -1.5129462059    0.5182462934
C        0.5759555536   -0.8638814737    1.9681969197
C        2.8083416775   -1.6119397760    1.8963330533
C        1.6894155486   -1.0497851109   -0.1579476132
C        1.6767117763   -1.0897704077   -1.6743369146
C        1.6869280569   -1.4690868520    4.0765504109
N        1.6931302283   -1.2901703250    2.6023132273
N        1.3504569205    0.0655163354   -2.3068449263
O        1.9394180361   -2.1528535779   -2.2167049478
H       -0.3654976114   -0.3926757928    0.1116177224
H        3.7163007536   -1.8090983148   -0.0289876281
H       -0.2827039856   -0.6420335046    2.5917882301
H        3.6616589791   -1.9552649557    2.4703524858
H        1.4425844137   -2.5071586406    4.3102477431
H        2.6712159357   -1.2182971979    4.4703229812
H        0.9446663330   -0.8036739530    4.5146203826
H        1.3688676657    0.0757372622   -3.3220986503
H        1.2929282156    0.9530992606   -1.8238855945
19   
Generated by ForceBalance from scan.xyz: Frame 17 of 24
C        0.5131956429   -0.7853518027    0.5900599198
C        2.8264958089   -1.4568493957    0.5041643061
C        0.5544804555   -0.9163608775    1.9685760169
C        2.8179547651   -1.5607462458    1.8824912647
C        1.6620386824   -1.0535442097   -0.1651374088
C        1.6181017617   -1.1039379735   -1.6807218320
C        1.7035460562   -1.4751391763    4.0696520013
N        1.6941456608   -1.2930489685    2.5959178904
N        1.5313937130    0.0847768965   -2.3243078096
O        1.6604415257   -2.2065372774   -2.2060039623
H       -0.4177213381   -0.4883589744    0.1180515304
H        3.7304836339   -1.7031868562   -0.0429159002
H       -0.3085938751   -0.7307986706    2.5979076965
H        3.6902587099   -1.8641149954    2.4504379360
H        1.4948452674   -2.5210902253    4.3027796427
H        2.6814880339   -1.1929546415    4.4578763572
H        0.9427129131   -0.8352493096    4.5139692621
H        1.5110039464    0.0842012578   -3.3395738158
H        1.5707270849    0.9740539819   -1.8426621280
19   
Generated by ForceBalance from scan.xyz: Frame 18 of 24
C        0.4518254305   -0.8326955226    0.6055454010
C        2.7945596118   -1.3865735365    0.4878229605
C        0.5189618095   -0.9626883977    1.9820584943
C        2.8084122644   -1.5008844047    1.8662106315
C        1.6020626343   -1.0457351341   -0.1658178352
C        1.5232931668   -1.0813211708   -1.6804713514
C        1.7186471803   -1.4750416967    4.0671685154
N        1.6833593772   -1.2895195537    2.5942943383
N        1.6867989800    0.0963651955   -2.3278136760
O        1.3194471325   -2.1676722378   -2.2014615228
H       -0.4980231488   -0.5805628437    0.1454122621
H        3.7070166289   -1.5768316814   -0.0677409902
H       -0.3421395322   -0.8149124871    2.6239200640
H        3.7018805534   -1.7644863494    2.4210276119
H        1.5512764805   -2.5284621530    4.2999471117
H        2.6904297228   -1.1581599996    4.4438830387
H        0.9406554095   -0.8645408758    4.5230608616
H        1.6375496197    0.1043731940   -3.3421637403
H        1.8606649148    0.9686517356   -1.8447925100
19   
Generated by ForceBalance from scan.xyz: Frame 19 of 24
C        0.3931385634   -0.8818916160    0.6274668863
C        2.7597231491   -1.3147003830    0.4760302828
C        0.4863583361   -1.0067472249    2.0019215128
C        2.7966939520   -1.4365575269    1.8545312877
C        1.5418869119   -1.0388317979   -0.1599579249
C        1.4265773757   -1.0511547745   -1.6722924499
C        1.7356683596   -1.4695856225    4.0695186063
N        1.6739499010   -1.2810543568    2.5978218957
N        1.8338877066    0.0633290987   -2.3254812437
O        0.9810547343   -2.0644622437   -2.1897547411
H       -0.5735926671   -0.6809452811    0.1776083327
H        3.6753928844   -1.4507723853   -0.0902090942
H       -0.3707733420   -0.8977762554    2.6566686853
H        3.7091443544   -1.6597847588    2.3960577866
H        1.6008395952   -2.5279157884    4.3011766809
H        2.7035231758   -1.1270598916    4.4334920557
H        0.9475973703   -0.8821305024    4.5382877287
H        1.7520458638    0.0896846375   -3.3374232616
H        2.1380195612    0.9001856194   -1.8442616766
19   
Generated by ForceBalance from scan.xyz: Frame 20 of 24
C        0.3518106705   -0.9386928560    0.6377288666
C        2.7365777408   -1.2479496046    0.4642224812
C        0.4634065749   -1.0598809720    2.0105395572
C        2.7913602024   -1.3765032771    1.8425355383
C        1.5007851523   -1.0331784360   -0.1593680248
C        1.3553691648   -1.0125911170   -1.6685540578
C        1.7512572843   -1.4672163224    4.0655851543
N        1.6693253015   -1.2777330621    2.5948871753
N        1.9901232788   -0.0074403715   -2.3222986621
O        0.6915496707   -1.8974082404   -2.1878366597
H       -0.6261983168   -0.7920051715    0.1915185121
H        3.6535638939   -1.3344746321   -0.1095926308
H       -0.3915283678   -0.9938637229    2.6738349650
H        3.7179604220   -1.5594888101    2.3750783792
H        1.6517306002   -2.5297454443    4.2958749783
H        2.7113638750   -1.0954373430    4.4210765419
H        0.9496739773   -0.9055181149    4.5430195818
H        1.8773059968    0.0544782165   -3.3296470479
H        2.4091580236    0.7777272035   -1.8403022579
19   
Generated by ForceBalance from scan.xyz: Frame 21 of 24
C        0.3184063248   -0.9777770014    0.6439296675
C        2.7138148747   -1.1692781830    0.4558163193
C        0.4428474346   -1.1053600097    2.0148411894
C        2.7815409898   -1.3106166447    1.8329358019
C        1.4666209824   -1.0034574849   -0.1592368842
C        1.2932275498   -0.9452966304   -1.6647278276
C        1.7582273444   -1.4683464593    4.0607957056
N        1.6610091156   -1.2705712440    2.5919320234
N        2.1196299037   -0.0970819657   -2.3325405549
O        0.4504529570   -1.6664787790   -2.1775806750
H       -0.6653432910   -0.8787692759    0.1972932673
H        3.6310540537   -1.2131180315   -0.1223307890
H       -0.4105373158   -1.0871295393    2.6831836069
H        3.7181917570   -1.4590348385    2.3585360945
H        1.6884226380   -2.5347984708    4.2838041810
H        2.7106039345   -1.0740267252    4.4125299259
H        0.9453820396   -0.9313236006    4.5475958569
H        1.9828726014    0.0010866861   -3.3340603524
H        2.6457513669    0.6274333735   -1.8605398491
19   
Generated by ForceBalance from scan.xyz: Frame 22 of 24
C        0.2906643052   -1.0117295798    0.6577485480
C        2.6898525177   -1.0881612333    0.4579719166
C        0.4250798935   -1.1539340820    2.0261006577
C        2.7702688529   -1.2453807202    1.8329572600
C        1.4345688903   -0.9654566919   -0.1504500218
C        1.2291305677   -0.8766067200   -1.6517648908
C        1.7645831571   -1.4811460973    4.0617525423
N        1.6523723173   -1.2681018502    2.5960862163
N        2.1941727446   -0.2254026256   -2.3577727673
O        0.2466678680   -1.4174138186   -2.1377299056
H       -0.6953454467   -0.9532384130    0.2089195135
H        3.6074775144   -1.0929251757   -0.1208687206
H       -0.4256069909   -1.1885824912    2.6972840096
H        3.7149425944   -1.3599808312    2.3525466152
H        1.7380223876   -2.5524196521    4.2706058240
H        2.7023055025   -1.0541562505    4.4145657175
H        0.9333869094   -0.9831494391    4.5589646162
H        2.0305138775   -0.1086356459   -3.3533083296
H        2.8346814997    0.4250248591   -1.9205434620
19   
Generated by ForceBalance from scan.xyz: Frame 23 of 24
C        0.2747098674   -1.0570422231    0.6535228051
C        2.6737680558   -1.0071545324    0.4653691390
C        0.4093978125   -1.2204579811    2.0193405803
C        2.7562973365   -1.1826000711    1.8381638801
C        1.4172333481   -0.9317593144   -0.1484124152
C        1.1919696050   -0.8068594927   -1.6473013411
C        1.7522983765   -1.5085653454    4.0573282468
N        1.6379519424   -1.2783009113    2.5944706442
N        2.2464915644   -0.3744029988   -2.3936322456
O        0.1125755327   -1.1507344027   -2.1067336274
H       -0.7085602188   -1.0341711720    0.1953328729
H        3.5977067056   -0.9618984475   -0.1008092134
H       -0.4415149405   -1.3153421054    2.6845255839
H        3.7036323621   -1.2561601456    2.3601419774
H        1.7445135849   -2.5827987724    4.2520456551
H        2.6819772474   -1.0701489108    4.4169975662
H        0.9118490774   -1.0314309877    4.5596711257
H        2.0667836267   -0.2384275502   -3.3840194449
H        3.0047918706    0.1653794809   -1.9969229545
19   
Generated by ForceBalance from scan.xyz: Frame 24 of 24
C        0.2849806638   -1.1327645467    0.6470202411
C        2.6688945791   -0.8727909569    0.4811127686
C        0.4235738346   -1.3237426632    2.0085741620
C        2.7570792908   -1.0689004182    1.8508397225
C        1.4177264141   -0.9065802578   -0.1474163771
C        1.1587426288   -0.6842814193   -1.6329146483
C        1.7685272403   -1.5388741485    4.0527831032
N        1.6479265161   -1.2895140185    2.5937687968
N        2.2353888489   -0.4622999018   -2.4305900043
O        0.0012709773   -0.6770471781   -2.0287786955
H       -0.6949709429   -1.1517202277    0.1814927882
H        3.5920523647   -0.6847246156   -0.0553177347
H       -0.4214104109   -1.5041080716    2.6636772378
H        3.7023652425   -1.0510785783    2.3810843318
H        1.8082223999   -2.6154928197    4.2294559780
H        2.6768901049   -1.0662429760    4.4230445988
H        0.9062180467   -1.1077261823    4.5599616015
H        2.0551199254   -0.3539442381   -3.4235407170
H        3.1940988092   -0.6082615131   -2.1485922054
