29   

C        3.0827046908   -2.8217956610    0.6819694744
C        2.4556827474   -1.6310185680    0.3063195427
C        2.8673835973   -3.3459159709    1.9592509359
C        1.6121745626   -0.9684500877    1.2051905404
C        2.0308501641   -2.6772644137    2.8600249363
C       -0.1577456239   -4.4163159349    5.7023313670
C       -0.0377630216   -5.6847754102    5.1287148873
C       -1.3789151414   -3.6781668772    3.7571546520
C        1.3909331718   -1.4815425091    2.4939293585
C       -0.8177603994   -3.3955087731    5.0108847021
C       -0.5735512006   -5.9593797050    3.8638638806
C       -1.2571974458   -4.9434943198    3.1715083512
C        0.5091501165   -0.7873169015    3.4275816395
C        0.3878060838   -0.8933446838    4.8032310948
O       -2.2147205679   -1.0958469354    5.3467310614
O       -0.6358618626   -1.7070659643    7.1429247211
S       -0.9261336337   -1.7117408648    5.7003690675
Cl      -0.3814028291   -7.5553166623    3.1717057402
Cl      -1.9480778137   -5.2292138193    1.5886825464
H        3.7341603033   -3.3369853834   -0.0152439614
H        2.6234248115   -1.2193705528   -0.6826573848
H        3.3487109909   -4.2719109613    2.2528807310
H        1.1350896568   -0.0447511407    0.8964624666
H        1.8740164942   -3.0979712389    3.8466500881
H        0.2668472914   -4.2216927812    6.6844559541
H        0.4794984938   -6.4709220534    5.6661322048
H       -1.9104913639   -2.9003091967    3.2159656108
H       -0.1567238507   -0.0574497376    2.9776258293
H        1.1756150318   -0.5074171405    5.4304765061
29   

C        2.8590989437   -3.1018711223    0.8812192072
C        2.1717216785   -1.9876134396    0.3940685406
C        2.8006769389   -3.4115594321    2.2421174257
C        1.4214275178   -1.1898079607    1.2652012941
C        2.0565931915   -2.6081294135    3.1130895244
C       -0.0688330657   -4.3959113518    5.5513998597
C        0.1165862124   -5.6109789444    4.8865657159
C       -1.2398890467   -3.5466502100    3.6210022058
C        1.3501342919   -1.4909951026    2.6357523453
C       -0.7338049133   -3.3440527824    4.9132750724
C       -0.3570750383   -5.8005199268    3.5818455587
C       -1.0493387052   -4.7559333098    2.9432812176
C        0.5415697750   -0.6668667387    3.5329816962
C        0.3628656861   -0.7591282830    4.8918645275
O       -2.2272562620   -1.1359436450    5.4094052630
O       -0.6265092597   -1.8002068843    7.1584496227
S       -0.9112073709   -1.7173103522    5.7170195953
Cl      -0.0762986620   -7.3270232124    2.7733964056
Cl      -1.6611625177   -4.9340062679    1.3129147074
H        3.4361488367   -3.7235045496    0.2055817655
H        2.2177127475   -1.7422156826   -0.6610801627
H        3.3314659428   -4.2762485522    2.6239590255
H        0.8911582596   -0.3322844875    0.8658582836
H        2.0251475763   -2.8634919048    4.1657687105
H        0.3117836123   -4.2653246672    6.5616811246
H        0.6393448893   -6.4205058931    5.3821261525
H       -1.7747159052   -2.7452625404    3.1191706950
H        0.0258682347    0.1667530957    3.0667193777
H        0.9931105418   -0.1870323130    5.5544734349
29   

C        2.7120404448   -3.3434087261    1.1798143133
C        1.8927413801   -2.3836124791    0.5806415787
C        2.8500366570   -3.3665641105    2.5695484045
C        1.2056806976   -1.4550854244    1.3707141124
C        2.1641003786   -2.4362486109    3.3579078991
C        0.0649015869   -4.3430086751    5.2749194048
C        0.2755022547   -5.4850236642    4.4977042264
C       -1.2184141568   -3.3827356897    3.4726389780
C        1.3233561206   -1.4752888117    2.7703028578
C       -0.6666433497   -3.2694205864    4.7570600462
C       -0.2374109350   -5.5786699439    3.1975292537
C       -1.0001211272   -4.5158451595    2.6811919634
C        0.5569883417   -0.5315974344    3.5915111066
C        0.3097579057   -0.6052979790    4.9287815607
O       -2.2253324961   -1.1870356175    5.5220837863
O       -0.5132979687   -1.9181660947    7.1198084610
S       -0.8679583327   -1.7244330323    5.7045950168
Cl       0.0841295754   -7.0092547793    2.2423631690
Cl      -1.6615974712   -4.5743659425    1.0616108731
H        3.2391387177   -4.0672957243    0.5682602896
H        1.7850119918   -2.3621071670   -0.4980375930
H        3.4863501093   -4.1084677590    3.0382934323
H        0.5665465028   -0.7245893838    0.8872346898
H        2.2813252057   -2.4698078132    4.4351247445
H        0.4803333167   -4.2839114569    6.2779723370
H        0.8518456170   -6.3097932201    4.8994535671
H       -1.8061062379   -2.5654810500    3.0648736249
H        0.1763112278    0.3500586762    3.0856385568
H        0.7146113114    0.1417887315    5.5935890534
29   

C        2.6383028011   -3.4113003741    1.2928372777
C        1.8111994297   -2.4788444210    0.6619199125
C        2.8051117868   -3.3638866005    2.6789175516
C        1.1445487732   -1.5075672162    1.4172635284
C        2.1382315973   -2.3917169054    3.4325755473
C        0.0749107409   -4.3635869465    5.1655005293
C        0.2886594307   -5.4891637815    4.3660525444
C       -1.2221363723   -3.3755116303    3.3883745698
C        1.2882190430   -1.4597054698    2.8135285382
C       -0.6651247516   -3.2838768001    4.6721014729
C       -0.2293514502   -5.5605713781    3.0667669994
C       -1.0002521348   -4.4921684865    2.5742255474
C        0.5491190935   -0.4630326373    3.6015159598
C        0.1777163589   -0.5370859577    4.9009296734
O       -2.2813187459   -1.3051948563    5.5729209831
O       -0.4672474163   -1.9894261734    7.0582289345
S       -0.8888016516   -1.7705383933    5.6650201126
Cl       0.0950872382   -6.9714586877    2.0837339491
Cl      -1.6694875329   -4.5246736853    0.9571743408
H        3.1496872302   -4.1681440067    0.7084500654
H        1.6819214276   -2.5115417004   -0.4141112978
H        3.4489270564   -4.0832940655    3.1718092013
H        0.4999662331   -0.7976121996    0.9109406692
H        2.2775250716   -2.3676971276    4.5076475235
H        0.4922178130   -4.3230442147    6.1687117753
H        0.8703879207   -6.3184254413    4.7503807596
H       -1.8184228947   -2.5550909007    3.0003641614
H        0.3117642029    0.4650492765    3.0911474194
H        0.3754604850    0.3024273876    5.5494972012
29   

C        3.1676539412   -3.5334462148    1.9163638113
C        2.1351561399   -3.0602530679    1.1019230030
C        3.3175248766   -3.0282934494    3.2105817878
C        1.2538764169   -2.0843675152    1.5812672246
C        2.4326550349   -2.0566448926    3.6904315392
C        0.1842476507   -4.2671268215    4.4960816603
C        0.0636550058   -5.2718876130    3.5353408502
C       -1.7897352793   -3.2031774420    3.6097786808
C        1.3863902772   -1.5765131221    2.8832335265
C       -0.7305687715   -3.2087662231    4.5275260053
C       -0.9714975760   -5.2471559175    2.5941900715
C       -1.9149881268   -4.2036156981    2.6368355086
C        0.4412454624   -0.5694488990    3.3935683275
C        0.0186328725   -0.4506164304    4.6670491825
O       -1.7868683403   -1.4782321250    6.3419826842
O        0.5429037300   -2.1440267470    6.6846079431
S       -0.5093428163   -1.8299401467    5.7032337407
Cl      -1.0656425289   -6.5071848221    1.3833768602
Cl      -3.2294618573   -4.1239118447    1.4840694687
H        3.8518794994   -4.2879157395    1.5442466306
H        2.0152439225   -3.4509863110    0.0976476821
H        4.1200614029   -3.3872752214    3.8452955457
H        0.4535662124   -1.7334656009    0.9392781465
H        2.5618381216   -1.6742827386    4.6983375573
H        1.0067271762   -4.2957362160    5.2064244990
H        0.7894510376   -6.0757956666    3.5080173274
H       -2.5197412652   -2.3994764452    3.6348169639
H        0.0786711599    0.1633539684    2.6798959393
H       -0.2216003578    0.5206640311    5.0713857529
29   

C        3.1551146447   -3.5512158157    1.9809249133
C        2.1284482765   -3.0785933528    1.1586899016
C        3.3188390788   -3.0182604080    3.2623957439
C        1.2672688166   -2.0753318168    1.6175697061
C        2.4533929666   -2.0195557831    3.7218811350
C        0.1933125815   -4.2720062272    4.4212814152
C        0.0500170289   -5.2761066671    3.4631455389
C       -1.7967686219   -3.2031852843    3.5784970033
C        1.4135482124   -1.5401628956    2.9068730432
C       -0.7192080133   -3.2124673391    4.4743682680
C       -1.0055616418   -5.2492258355    2.5451853675
C       -1.9451867024   -4.2031671581    2.6081441178
C        0.4914195913   -0.4965766593    3.3940130478
C       -0.0667401049   -0.4280106557    4.6129763685
O       -1.7228729147   -1.5482875815    6.3760142319
O        0.6447350034   -2.1316469808    6.5668172955
S       -0.4748764917   -1.8412608197    5.6546260127
Cl      -1.1298680414   -6.5100410956    1.3378925828
Cl      -3.2846543898   -4.1209162392    1.4846954209
H        3.8242434231   -4.3265501217    1.6246068445
H        1.9975743008   -3.4905516536    0.1643174295
H        4.1169762110   -3.3762720931    3.9032005959
H        0.4714812363   -1.7235857778    0.9704186871
H        2.5929244859   -1.6145937693    4.7195919720
H        1.0308157326   -4.3028998948    5.1137489331
H        0.7733836783   -6.0815217523    3.4203960359
H       -2.5245533828   -2.3982608617    3.6195189428
H        0.2407905187    0.2911438324    2.6908091921
H       -0.4495024391    0.5116030419    4.9809128586
29   

C        3.1275710138   -3.5690430243    2.0181367809
C        2.1015645422   -3.0810683129    1.2039877356
C        3.3176010795   -3.0296323783    3.2934493460
C        1.2679350023   -2.0556994222    1.6646968663
C        2.4790379409   -2.0088945989    3.7547797557
C        0.2037205052   -4.2808645202    4.4061166293
C        0.0622450598   -5.2909267927    3.4539564389
C       -1.7950319894   -3.2273239795    3.5650700191
C        1.4412729649   -1.5138681593    2.9476182170
C       -0.7149049083   -3.2266636790    4.4578236611
C       -0.9970605199   -5.2748651785    2.5400531381
C       -1.9417382188   -4.2332599574    2.6006251812
C        0.5488647022   -0.4412576017    3.4356859218
C       -0.1477296657   -0.4286973687    4.5801756972
O       -1.7123648643   -1.5977880467    6.3909869743
O        0.6770385886   -2.1087512837    6.5122641790
S       -0.4769931785   -1.8506471920    5.6335721607
Cl      -1.1197421949   -6.5434318068    1.3407293212
Cl      -3.2859629580   -4.1642955180    1.4819326390
H        3.7756171456   -4.3613880942    1.6603090655
H        1.9498047971   -3.4979470376    0.2146456563
H        4.1151022704   -3.3998037403    3.9280846970
H        0.4723812546   -1.6907366383    1.0245902752
H        2.6371863594   -1.5986971271    4.7475692903
H        1.0439162696   -4.3033956177    5.0955997828
H        0.7897266193   -6.0926889243    3.4129608683
H       -2.5268571022   -2.4260474243    3.6041049725
H        0.4154269889    0.4061007939    2.7708478111
H       -0.6436488445    0.4749322912    4.9000976742
29   

C        1.9929509692   -3.0252090728    0.8731625315
C        1.0931116811   -1.9558513452    0.8726497461
C        2.7099205990   -3.3288093963    2.0337720561
C        0.9060534374   -1.1967879003    2.0332352371
C        2.5258538542   -2.5647940748    3.1917433773
C       -0.2611893647   -3.9911351845    5.4253913682
C        0.1592852562   -5.2871380408    5.1152570292
C       -0.9294688183   -3.6838788843    3.1295109284
C        1.6157291648   -1.4970033359    3.2072990660
C       -0.7924957332   -3.1691195090    4.4270582506
C        0.0484655266   -5.7902070232    3.8127792193
C       -0.5110395960   -4.9802659677    2.8086201778
C        1.4060280251   -0.7056417971    4.4417799888
C        0.2770703249   -0.6177839738    5.1553639018
O       -1.9174152481   -0.8275147012    3.6143771210
O       -2.1290478043   -1.3929741661    5.9856428433
S       -1.2765517802   -1.4461422823    4.7877277856
Cl       0.6084523431   -7.4105946967    3.4612422700
Cl      -0.6806521535   -5.5581499178    1.1647374488
H        2.1322390195   -3.6191961087   -0.0233481828
H        0.5353243109   -1.7155448023   -0.0256320258
H        3.4058192489   -4.1601380759    2.0374916118
H        0.2000924180   -0.3719119530    2.0222339403
H        3.0830351135   -2.8146169830    4.0875854500
H       -0.1653952957   -3.6185463634    6.4415548436
H        0.5815606908   -5.9155638395    5.8902906249
H       -1.3527824988   -3.0623526626    2.3454104278
H        2.2841225583   -0.2118291652    4.8453297831
H        0.2489755094   -0.0137715112    6.0492745095
29   

C        2.0058658948   -3.0173964757    0.8419778207
C        1.0975145572   -1.9562505078    0.8807616504
C        2.7354162913   -3.3488426702    1.9869294638
C        0.9136153786   -1.2341070300    2.0649818429
C        2.5541821140   -2.6220803925    3.1691646463
C       -0.2803909460   -3.9695838076    5.4410527529
C        0.1474843409   -5.2670953280    5.1477145001
C       -0.9390238429   -3.6917468584    3.1385427614
C        1.6336162947   -1.5642902764    3.2254498053
C       -0.8098097639   -3.1612052595    4.4306061186
C        0.0462054967   -5.7851266254    3.8503004797
C       -0.5121534617   -4.9893107567    2.8342871274
C        1.4256990953   -0.8172853644    4.4828525855
C        0.2570139186   -0.5880982184    5.0975551352
O       -1.9577073778   -0.8389872934    3.5931112252
O       -2.1332705385   -1.3617554702    5.9757350309
S       -1.2969987932   -1.4340557103    4.7674585603
Cl       0.6168238251   -7.4061874648    3.5195958139
Cl      -0.6689021430   -5.5856108739    1.1957583295
H        2.1428648365   -3.5826640543   -0.0732560345
H        0.5310467157   -1.6930093902   -0.0056073010
H        3.4390864236   -4.1731637705    1.9595093591
H        0.2028329310   -0.4135340590    2.0812733543
H        3.1216213485   -2.8949239402    4.0517310078
H       -0.1910926349   -3.5847994768    6.4532926870
H        0.5687478795   -5.8848147447    5.9318559251
H       -1.3611719017   -3.0812376838    2.3451807844
H        2.3212956580   -0.4531584719    4.9758574078
H        0.2095917149    0.1021314924    5.9258515665
29   

C        2.0454127069   -3.0038597152    0.8246834313
C        1.1179177440   -1.9606049313    0.8843992041
C        2.7789552865   -3.3465129148    1.9637079817
C        0.9186687924   -1.2678611413    2.0834584858
C        2.5821194401   -2.6495397502    3.1613485160
C       -0.2970607287   -3.9445752587    5.4543969271
C        0.1417113468   -5.2390969685    5.1638140461
C       -0.9605260309   -3.6784292455    3.1517666893
C        1.6419007246   -1.6102842881    3.2391436890
C       -0.8334334725   -3.1430317549    4.4421143546
C        0.0447855784   -5.7607911853    3.8674866870
C       -0.5216170443   -4.9724880994    2.8500817840
C        1.4140846867   -0.9000541771    4.5103590949
C        0.2256777130   -0.5425296280    5.0241797964
O       -2.0413553088   -0.8477057609    3.6165107107
O       -2.1177148660   -1.3336652400    6.0120098170
S       -1.3288064744   -1.4169174453    4.7729807657
Cl       0.6309745951   -7.3768875616    3.5397660545
Cl      -0.6725242471   -5.5731230274    1.2126224130
H        2.1945128060   -3.5462226123   -0.1024375886
H        0.5486795497   -1.6883608585    0.0025241791
H        3.4979796726   -4.1567418422    1.9195904240
H        0.1930818597   -0.4607708334    2.1143083870
H        3.1530157284   -2.9324677199    4.0384697207
H       -0.2103357763   -3.5563279719    6.4656020476
H        0.5687788126   -5.8513858612    5.9490739669
H       -1.3888491341   -3.0737979101    2.3571827233
H        2.2985529955   -0.6430931593    5.0842760733
H        0.1707708382    0.2408617762    5.7644287561
29   

C        2.1004508133   -3.0168033545    0.8191623738
C        1.1511826726   -1.9935993251    0.8806740262
C        2.8271232952   -3.3591093855    1.9626327798
C        0.9235399048   -1.3204716434    2.0857399331
C        2.6015340201   -2.6822637449    3.1667795948
C       -0.3173976666   -3.9387861627    5.4486814804
C        0.1291771700   -5.2253706735    5.1359274472
C       -1.0182709042   -3.6513025295    3.1595554771
C        1.6397857365   -1.6628277964    3.2464335943
C       -0.8752064002   -3.1298667858    4.4538761162
C        0.0191231490   -5.7316874479    3.8345641817
C       -0.5704314783   -4.9368842556    2.8354466730
C        1.3773105948   -0.9788394459    4.5233383938
C        0.1853130969   -0.5072739618    4.9364785143
O       -2.1748747703   -0.8581578715    3.7068375047
O       -2.0681481519   -1.3279572510    6.1051945517
S       -1.3724491886   -1.4097516955    4.8113919302
Cl       0.6184257814   -7.3367789605    3.4778728478
Cl      -0.7375965579   -5.5181495634    1.1926416482
H        2.2717692775   -3.5438063808   -0.1129597598
H        0.5871819231   -1.7220666393   -0.0047666068
H        3.5632153880   -4.1537640054    1.9167858029
H        0.1804140358   -0.5295809001    2.1172299301
H        3.1674358996   -2.9661852498    4.0467807486
H       -0.2192904280   -3.5615970090    6.4631345116
H        0.5735441756   -5.8429826249    5.9073049489
H       -1.4643026363   -3.0412658432    2.3789613725
H        2.2311490223   -0.8112291756    5.1718000274
H        0.1350024620    0.3730630868    5.5585778435
29   

C        2.2159812568   -3.0960850371    0.8618809110
C        1.2201574959   -2.1165919973    0.8824424413
C        2.9349295125   -3.3793408244    2.0261205142
C        0.9388631934   -1.4281617015    2.0673542627
C        2.6543706197   -2.6882090587    3.2104844237
C       -0.2940516925   -3.9445761849    5.4073773239
C        0.1525197306   -5.2094913590    5.0174062738
C       -1.1472660651   -3.5834659729    3.1810157459
C        1.6462131362   -1.7119363057    3.2490636939
C       -0.9270381622   -3.1086892094    4.4819918446
C       -0.0313521556   -5.6672633147    3.7066299239
C       -0.6984087559   -4.8469226335    2.7790890837
C        1.3243839411   -1.0170007913    4.5043598840
C        0.1282838398   -0.4729685229    4.8271813230
O       -2.3860001884   -0.8648611442    3.9773403584
O       -1.8971349232   -1.3594616337    6.3247345709
S       -1.4112127850   -1.4088173065    4.9367836589
Cl       0.5745721322   -7.2440779552    3.2493426710
Cl      -0.9582678434   -5.3679258582    1.1282704845
H        2.4296044537   -3.6344755285   -0.0548626313
H        0.6620449029   -1.8915577113   -0.0195530927
H        3.7080924234   -4.1392124326    2.0116353729
H        0.1606619451   -0.6716174743    2.0670764477
H        3.2155913232   -2.9270295640    4.1067086602
H       -0.1357893651   -3.6033012975    6.4271011868
H        0.6562897420   -5.8467534992    5.7343828197
H       -1.6530880276   -2.9524145968    2.4556240984
H        2.1360061834   -0.8841813090    5.2123515960
H        0.0776263998    0.5152000889    5.2575656444
29   

C        2.6769528694   -3.3423008922    1.2095419315
C        1.4367113808   -2.7072681442    1.1136489868
C        3.4648402796   -3.1557060294    2.3481322981
C        0.9840387581   -1.8921573043    2.1566484322
C        3.0073344771   -2.3449827070    3.3934403982
C       -0.1473043547   -3.9494778660    4.9855040511
C        0.1562914162   -5.1446148562    4.3320083949
C       -1.7287875123   -3.4167047568    3.2438808880
C        1.7560300269   -1.7111318615    3.3170730880
C       -1.0746682777   -3.0604209394    4.4313784560
C       -0.4659189128   -5.4830375364    3.1249737701
C       -1.4286441547   -4.6132602831    2.5794629200
C        1.2673555624   -0.8976570741    4.4350585254
C        0.0007845896   -0.4420834512    4.6481393599
O       -2.6472965933   -0.8558690732    4.7481416465
O       -1.3129641311   -1.5648044435    6.6815700718
S       -1.3825302856   -1.4441575034    5.2166551981
Cl      -0.0303274339   -6.9743877054    2.3196066039
Cl      -2.2405229768   -4.9904794880    1.0758169353
H        3.0269975468   -3.9755217318    0.4017956635
H        0.8223647554   -2.8475474164    0.2312642916
H        4.4307168058   -3.6426585774    2.4223905391
H        0.0209567815   -1.4034782277    2.0621983045
H        3.6298281920   -2.2185152240    4.2722156120
H        0.3543560951   -3.6998258033    5.9168004943
H        0.8921664372   -5.8169376202    4.7567561397
H       -2.4689999850   -2.7470168755    2.8145684460
H        2.0120116901   -0.5756477493    5.1559929295
H       -0.2001920653    0.6177691290    4.6289003106
29   

C        3.0106101246   -3.2112021593    1.1642684493
C        1.6684285643   -2.8281283908    1.1084068221
C        3.7865686134   -2.8578716415    2.2710475828
C        1.1046980090   -2.0933534997    2.1570351556
C        3.2185883429   -2.1300529753    3.3230279809
C       -0.2837919646   -3.9985080402    4.9701362032
C       -0.1003244924   -5.2144149328    4.3105048924
C       -1.9591204160   -3.3868320181    3.3459314228
C        1.8688635228   -1.7415967136    3.2828036226
C       -1.2007500936   -3.0626485908    4.4792519296
C       -0.8324452500   -5.5261972529    3.1592914757
C       -1.7799086591   -4.6043588131    2.6756110395
C        1.2769913305   -1.0028857039    4.3975854594
C       -0.0020855130   -0.5246148487    4.5430945662
O       -2.6424675388   -0.7913245402    4.9279903003
O       -1.1428569725   -1.5483858453    6.7284071058
S       -1.3654795570   -1.4326158144    5.2783610517
Cl      -0.5520617726   -7.0505775512    2.3465870798
Cl      -2.7258159744   -4.9465760076    1.2435777887
H        3.4485166407   -3.7786964254    0.3505342199
H        1.0618546025   -3.0998953090    0.2516983789
H        4.8300767152   -3.1491081057    2.3150469651
H        0.0634004236   -1.8006217827    2.0918684556
H        3.8368558776   -1.8688776797    4.1747700950
H        0.2999709048   -3.7726740427    5.8589014865
H        0.6248552432   -5.9257148923    4.6879874007
H       -2.6910842645   -2.6788612489    2.9663927778
H        1.9466467276   -0.7687141857    5.2190445090
H       -0.2404901046    0.4817960770    4.2367367243
29   

C        3.4365492373   -2.9928042648    1.0959569772
C        2.0396925884   -2.9561440114    1.1021387497
C        4.1498832973   -2.4219844258    2.1532314722
C        1.3587972404   -2.3449564762    2.1608874606
C        3.4670164114   -1.8190310549    3.2157469079
C       -0.4924768028   -4.1049134292    4.9853549091
C       -0.4781478521   -5.3502583025    4.3554555436
C       -2.1911696833   -3.3611431054    3.4421962132
C        2.0632571542   -1.7704198418    3.2319095748
C       -1.3390589924   -3.0920179764    4.5221491384
C       -1.3103751039   -5.6133114955    3.2612295820
C       -2.1821883000   -4.6078712777    2.8023942983
C        1.3546585436   -1.1353721192    4.3402092845
C        0.0527815110   -0.6746322947    4.4313703258
O       -2.5565965211   -0.7083197822    5.0328798528
O       -0.9771581228   -1.5576865158    6.7277626851
S       -1.3104751745   -1.4436780373    5.2988724073
Cl      -1.2485605935   -7.1827867797    2.4891514152
Cl      -3.2480215683   -4.8858729317    1.4422974711
H        3.9649961472   -3.4610331563    0.2728636651
H        1.4818955871   -3.4003082342    0.2852607891
H        5.2339426563   -2.4440353318    2.1491856630
H        0.2751175115   -2.3242756736    2.1487166914
H        4.0373178624   -1.3780950048    4.0259739682
H        0.1622245932   -3.9208017059    5.8336405948
H        0.1884852603   -6.1256846088    4.7145727759
H       -2.8694324923   -2.5905756740    3.0850978477
H        1.9435360585   -0.9851050697    5.2396601432
H       -0.2252326893    0.2107952227    3.8818934552
