40

C      2.55942    3.12301   -2.54855
C      1.65453    2.06600   -2.47669
C      3.14042    0.90794   -0.95608
C      5.95677    5.79691   -2.69196
C      4.87826    5.01871   -3.03536
C      3.77182    3.07748   -1.85921
C      1.94183    0.94022   -1.68670
C      4.05213    1.96296   -1.03935
C      5.71729    4.39977   -1.07553
C      0.98310   -1.13716   -0.69254
C      0.69815   -4.68123   -2.44255
C      5.83001    3.62115    0.18839
C     -0.16283   -0.16911   -2.49526
C     -0.67765   -1.59091   -2.22447
C      0.36392   -6.00828   -1.78833
C     -0.23542   -2.58101   -3.31205
N      6.47408    5.40389   -1.47011
N      4.72234    4.11628   -1.98806
N      1.02258   -0.13008   -1.64984
N     -0.38582   -3.96514   -2.91320
O      1.71904   -1.31775    0.24868
O      1.84958   -4.27340   -2.55193
O     -0.09203   -1.94697   -0.95887
S      5.58394    1.83087   -0.14491
H      2.31110    3.99596   -3.14377
H      0.72369    2.14057   -3.02661
H      3.35557    0.06399   -0.31439
H      6.39832    6.60730   -3.25718
H      4.25703    4.99123   -3.91748
H      6.83226    3.74342    0.60048
H      5.09743    3.94476    0.93526
H      0.09529   -0.02535   -3.54904
H     -0.88795    0.60061   -2.20231
H     -1.76197   -1.61845   -2.08939
H      1.10636   -6.74893   -2.09081
H      0.43671   -5.88429   -0.70316
H     -0.63760   -6.37394   -2.03365
H      0.82430   -2.43565   -3.53361
H     -0.80956   -2.37831   -4.22474
H     -1.31003   -4.29521   -2.66692
