42

C     -0.40568    6.51765   -4.46632
C     -0.69719    5.24420   -4.96679
C      0.69859    6.69337   -3.62503
C      2.44126   -2.06449    0.03965
C      0.10252    4.14972   -4.63275
C      1.51019    5.61089   -3.28218
C      1.23198   -1.39980    0.24345
C      2.36176    0.70482   -0.23107
C      3.61249   -1.38963   -0.32652
C      1.20257    4.34388   -3.79041
C      3.55435    0.00932   -0.49366
C      1.22697   -0.01449    0.10894
C      3.53374    2.09674   -2.52644
C      2.78297    1.25957   -3.39436
C      4.76647    1.79964   -1.73610
C      4.90980   -2.16356   -0.48075
C      6.06207   -1.31815   -1.03788
C      6.00038    0.10033   -0.47060
C      2.92800   -0.19733   -3.69777
N      3.03821    3.33667   -2.58589
N      1.83815    2.01065   -3.96612
N      2.02228    3.23529   -3.44480
N      4.72668    0.70707   -0.88153
O      5.78879    2.45951   -1.90008
F      0.07536    0.66526    0.34173
H     -1.03250    7.36511   -4.72966
H     -1.55276    5.09774   -5.62049
H      0.93419    7.67906   -3.23314
H      2.47749   -3.14496    0.16042
H     -0.11194    3.15765   -5.01239
H      2.37079    5.73340   -2.63491
H      0.32302   -1.92604    0.51632
H      2.31129    1.78549   -0.28343
H      5.19209   -2.54716    0.50825
H      4.74399   -3.04390   -1.11139
H      7.02417   -1.78084   -0.79524
H      6.00007   -1.25252   -2.12979
H      6.05497    0.08995    0.62434
H      6.80149    0.73286   -0.84889
H      2.44572   -0.80751   -2.92745
H      2.46398   -0.42586   -4.65957
H      3.98169   -0.48630   -3.73748
