24

C     -1.05461    1.83707    1.20001
C     -1.26349    2.97064    1.98875
C      0.47881    2.20586    3.49307
C     -0.09599    0.86671    1.52206
C      0.67278    1.07998    2.68754
C     -0.48916    3.13263    3.12883
C      1.07693   -0.03121   -0.59501
C     -0.19766   -0.02928   -1.47572
C      0.13178   -0.33313    0.61514
C      1.73293    0.08786    3.10972
N     -0.93450   -0.67329   -0.35800
F     -0.67779    4.22306    3.91158
F      2.46066    0.53082    4.16121
F      1.19830   -1.10555    3.48357
F      2.61350   -0.17527    2.10834
H     -1.65723    1.71541    0.30572
H     -2.00960    3.71554    1.72927
H      1.06645    2.36733    4.38933
H      1.75274   -0.86113   -0.80778
H      1.64389    0.89869   -0.53908
H     -0.53549    0.98582   -1.72873
H     -0.17077   -0.63003   -2.39065
H      0.42076   -1.19858    1.21357
H     -1.87026   -0.32945   -0.15573
