20

C      2.43491   -1.62464   -0.32256
C      1.63366   -0.86965    0.53506
C      3.50721   -2.38300    0.15831
C      2.96976   -1.62360    2.41565
C      1.89791   -0.86165    1.91584
C      3.74841   -2.35703    1.52924
C      6.00374   -2.60608    2.18281
N     -0.12534    0.34414    2.37667
N      1.15589   -0.07259    2.80972
O      4.78035   -3.16945    2.05846
F      6.01124   -1.54125    3.02226
F      6.50951   -2.17351    1.00381
F      6.83425   -3.53381    2.68017
H      2.21786   -1.62439   -1.38742
H      0.80200   -0.28624    0.15843
H      4.13407   -2.97762   -0.49715
H      3.20160   -1.64412    3.47704
H     -0.31030    1.26806    2.75822
H     -0.85312   -0.29965    2.69089
H      1.20260   -0.40595    3.76963
