21

C      1.82147   -1.03631   -0.19091
C      0.96758   -0.26650    0.59225
C      3.07414   -1.65129    1.77303
C      2.22856   -0.88369    2.59191
C      2.88748   -1.74113    0.39361
C      1.17670   -0.19605    1.96934
C      2.53389   -0.88268    4.05594
C      1.99145   -0.05655    6.19385
C      3.80258   -2.56987   -0.44443
O      3.43335   -1.54594    4.54504
O      1.72616   -0.08204    4.77534
F      0.31564    0.55917    2.67870
Br     5.22986   -1.45250   -1.30781
H      1.66616   -1.08476   -1.26580
H      0.13731    0.28319    0.16009
H      3.89019   -2.17826    2.25839
H      1.25674    0.63207    6.60994
H      3.00695    0.29773    6.38450
H      1.87226   -1.05504    6.62058
H      3.29597   -3.04624   -1.28166
H      4.34726   -3.31181    0.13549
