40

C      5.77422   -0.61848   -0.97509
C      6.25229   -1.78347   -0.35113
C      4.41202   -0.39629   -1.07973
C      5.29309   -2.66458    0.13467
C      3.51889   -1.36477   -0.54129
C     -0.16564    0.50660    0.77406
C     -2.34975    0.43549   -1.15951
C     -0.91055    0.46522   -1.66498
C     -0.12023   -1.66333   -0.44891
C     -2.46859    1.26805    0.11079
C      1.24670   -2.14516    0.03698
C      1.51988    0.02309   -1.03206
C      0.03889   -0.12310   -0.61548
C     -1.62777    1.55877    2.41104
C      5.69634   -3.95720    0.82131
N      3.97326   -2.48266    0.05699
N      2.16689   -1.21857   -0.62315
N     -1.41963    0.97043    1.09078
O      0.75572    0.50796    1.59481
F      7.04649   -4.09484    0.88625
F      5.22948   -4.02152    2.08966
F      5.21964   -5.04281    0.16535
H      6.47293    0.11011   -1.37813
H      7.31098   -1.98847   -0.25166
H      4.03492    0.49607   -1.56614
H     -3.03894    0.83703   -1.90954
H     -2.65534   -0.59720   -0.96012
H     -0.81053   -0.09681   -2.60040
H     -0.62185    1.50233   -1.88421
H     -0.34842   -2.09969   -1.42822
H     -0.92267   -1.93788    0.23952
H     -2.43012    2.33974   -0.14115
H     -3.43731    1.09189    0.59176
H      1.34359   -2.06970    1.12562
H      1.46447   -3.17482   -0.25393
H      1.59335    0.15852   -2.12053
H      1.97813    0.88887   -0.54353
H     -1.61999    2.65598    2.35893
H     -0.83048    1.23345    3.07657
H     -2.59643    1.23554    2.80647
