33

C     -1.64733    0.83106    5.43116
C     -0.69208    0.76639    6.45883
C     -0.40354   -0.80220    4.17778
C     -1.51775    0.05328    4.28382
C      0.40967   -0.08047    6.35156
C      0.55354   -0.87992    5.18831
C     -2.46475    2.09268   -0.26017
C      1.27734    0.56066    8.47688
C      1.84265   -2.50701    4.01341
C     -2.50922    0.15422    3.14688
C     -2.02154    1.09242    2.02863
C     -3.00649    1.21503    0.86903
O     -4.22168    1.76310    1.41213
O      1.39162   -0.21971    7.29486
O      1.65614   -1.68940    5.16037
H     -2.49862    1.49911    5.53765
H     -0.82329    1.38212    7.34164
H     -0.30022   -1.41422    3.28735
H     -2.25456    3.10178    0.10924
H     -1.54107    1.67320   -0.67385
H     -3.18870    2.17270   -1.08063
H      2.14483    0.30547    9.08750
H      0.36049    0.32053    9.03076
H      1.29455    1.63527    8.25325
H      2.76532   -3.06198    4.18990
H      1.95078   -1.90399    3.10248
H      1.01321   -3.21418    3.88363
H     -2.69271   -0.84126    2.72183
H     -3.47015    0.52108    3.51680
H     -1.06175    0.73290    1.63877
H     -1.84186    2.09129    2.44422
H     -3.21171    0.20679    0.47274
H     -4.86256    1.84906    0.68934
