33

C     -1.83578    0.93363    5.47818
C     -0.86923    0.90746    6.49644
C     -0.60922   -0.74988    4.27346
C     -1.71967    0.11160    4.35970
C      0.23076    0.05497    6.40846
C      0.35928   -0.78829    5.27546
C     -0.79503    2.15369    0.44067
C      1.12483    0.77743    8.49681
C      1.61933   -2.47041    4.15015
C     -2.72394    0.16802    3.22966
C     -2.40261    1.24985    2.17833
C     -1.04477    1.08155    1.50098
O     -1.02597   -0.23806    0.91739
O      1.22420   -0.04809    7.34470
O      1.46274   -1.59735    5.26080
H     -2.68690    1.60455    5.57204
H     -0.99035    1.55487    7.35781
H     -0.51662   -1.37921    3.39542
H     -1.55717    2.10364   -0.34420
H     -0.81787    3.15409    0.88645
H      0.18882    2.02441   -0.02759
H      1.99995    0.54592    9.10600
H      0.21515    0.55943    9.07131
H      1.13910    1.84270    8.23170
H      2.54292   -3.02195    4.33263
H      1.70892   -1.91257    3.20889
H      0.78262   -3.17607    4.07191
H     -2.77345   -0.80192    2.72725
H     -3.72169    0.37075    3.63513
H     -2.42450    2.23852    2.65210
H     -3.18197    1.24016    1.40568
H     -0.25909    1.14267    2.26726
H     -0.18864   -0.33749    0.43835
