29   

C        3.0827047432   -2.8217956765    0.6819695348
C        2.4556826623   -1.6310186841    0.3063195099
C        2.8673837496   -3.3459158840    1.9592510553
C        1.6121744485   -0.9684501966    1.2051904772
C        2.0308502844   -2.6772643223    2.8600250200
C       -0.1577455225   -4.4163158790    5.7023316154
C       -0.0377628771   -5.6847754091    5.1287152747
C       -1.3789150359   -3.6781670648    3.7571548012
C        1.3909331718   -1.4815425091    2.4939293585
C       -0.8177603254   -3.3955088171    5.0108848370
C       -0.5735510327   -5.9593798619    3.8638642927
C       -1.2571972897   -4.9434945683    3.1715086340
C        0.5091501165   -0.7873169015    3.4275816395
C        0.3878060838   -0.8933446838    4.8032310948
O       -2.2147205730   -1.0958470048    5.3467309585
O       -0.6358619308   -1.7070658439    7.1429247344
S       -0.9261336337   -1.7117408648    5.7003690675
Cl      -0.3814025971   -7.5553168971    3.1717063423
Cl      -1.9480776004   -5.2292142569    1.5886828361
H        3.7341603872   -3.3369853982   -0.0152438740
H        2.6234246454   -1.2193707444   -0.6826574624
H        3.3487112476   -4.2719107931    2.2528809342
H        1.1350894416   -0.0447513276    0.8964623279
H        1.8740166816   -3.0979710739    3.8466502145
H        0.2668473818   -4.2216926035    6.6844561843
H        0.4794986623   -6.4709219704    5.6661326854
H       -1.9104912746   -2.9003094556    3.2159656682
H       -0.1567239174   -0.0574498132    2.9776258054
H        1.1756151501   -0.5074173631    5.4304764937
29   

C        2.8590988176   -3.1018711238    0.8812191024
C        2.1717214673   -1.9876134766    0.3940684742
C        2.8006769590   -3.4115593850    2.2421173418
C        1.4214273872   -1.1898079875    1.2652012802
C        2.0565932551   -2.6081293817    3.1130894976
C       -0.0688330376   -4.3959113640    5.5513999599
C        0.1165862902   -5.6109789619    4.8865658363
C       -1.2398888450   -3.5466502243    3.6210022032
C        1.3501342919   -1.4909951026    2.6357523453
C       -0.7338048333   -3.3440527961    4.9132751141
C       -0.3570748480   -5.8005199421    3.5818456369
C       -1.0493384447   -4.7559333204    2.9432812309
C        0.5415697750   -0.6668667387    3.5329816962
C        0.3628656861   -0.7591282830    4.8918645275
O       -2.2272562704   -1.1359436884    5.4094052174
O       -0.6265092835   -1.8002068355    7.1584496302
S       -0.9112073709   -1.7173103522    5.7170195953
Cl      -0.0762984102   -7.3270232273    2.7733965103
Cl      -1.6611620892   -4.9340062593    1.3129146564
H        3.4361486317   -3.7235045698    0.2055816060
H        2.2177123839   -1.7422157677   -0.6610802454
H        3.3314660225   -4.2762484802    2.6239589124
H        0.8911580594   -0.3322845413    0.8658582930
H        2.0251477004   -2.8634918654    4.1657686898
H        0.3117835615   -4.2653246770    6.5616812542
H        0.6393449196   -6.4205059122    5.3821263194
H       -1.7747156434   -2.7452625480    3.1191706421
H        0.0258682727    0.1667531253    3.0667193885
H        0.9931104399   -0.1870321955    5.5544734307
29   

C        2.7120404761   -3.3434086360    1.1798142281
C        1.8927414562   -2.3836123280    0.5806415325
C        2.8500366180   -3.3665641308    2.5695483264
C        1.2056807562   -1.4550853230    1.3707141060
C        2.1641003210   -2.4362486806    3.3579078704
C        0.0649013058   -4.3430087993    5.2749195311
C        0.2755018549   -5.4850238458    4.4977044010
C       -1.2184141621   -3.3827356761    3.4726389763
C        1.3233561206   -1.4752888117    2.7703028578
C       -0.6666434386   -3.2694206182    4.7570600833
C       -0.2374112507   -5.5786700907    3.1975293908
C       -1.0001212380   -4.5158452003    2.6811920096
C        0.5569883417   -0.5315974344    3.5915111066
C        0.3097579057   -0.6052979790    4.9287815607
O       -2.2253324867   -1.1870355786    5.5220838335
O       -0.5132979501   -1.9181660823    7.1198084581
S       -0.8679583327   -1.7244330323    5.7045950168
Cl       0.0841291065   -7.0092550142    2.2423633738
Cl      -1.6615974538   -4.5743659175    1.0616108653
H        3.2391387723   -4.0672955866    0.5682601665
H        1.7850121272   -2.3621069248   -0.4980376418
H        3.4863500489   -4.1084678189    3.0382933156
H        0.5665465975   -0.7245892349    0.8872347016
H        2.2813251117   -2.4698079624    4.4351247189
H        0.4803329677   -4.2839116189    6.2779724963
H        0.8518450576   -6.3097934811    4.8994538093
H       -1.8061060944   -2.5654809612    3.0648735555
H        0.1763112630    0.3500586965    3.0856385656
H        0.7146110380    0.1417889324    5.5935889949
29   

C        2.6383030260   -3.4113002870    1.2928373506
C        1.8111997083   -2.4788443153    0.6619199343
C        2.8051118415   -3.3638865699    2.6789176443
C        1.1445489411   -1.5075671456    1.4172635094
C        2.1382315440   -2.3917169240    3.4325756028
C        0.0749105993   -4.3635869657    5.1655002729
C        0.2886591998   -5.4891637422    4.3660521780
C       -1.2221366060   -3.3755114584    3.3883744870
C        1.2882190430   -1.4597054698    2.8135285382
C       -0.6651248875   -3.2838767473    4.6721013542
C       -0.2293517924   -5.5605712183    3.0667666705
C       -1.0002524894   -4.4921682662    2.5742253681
C        0.5491190935   -0.4630326373    3.6015159598
C        0.1777163589   -0.5370859577    4.9009296734
O       -2.2813187293   -1.3051947846    5.5729210951
O       -0.4672473375   -1.9894262829    7.0582288933
S       -0.8888016516   -1.7705383933    5.6650201126
Cl       0.0950867627   -6.9714584575    2.0837334782
Cl      -1.6694880719   -4.5246733413    0.9571742358
H        3.1496875621   -4.1681438762    0.7084501686
H        1.6819218521   -2.5115415437   -0.4141112917
H        3.4489270828   -4.0832940291    3.1718093371
H        0.4999664716   -0.7976120951    0.9109406026
H        2.2775249255   -2.3676971798    4.5076475962
H        0.4922177489   -4.3230443312    6.1687114900
H        0.8703877058   -6.3184254492    4.7503802715
H       -1.8184231227   -2.5550906719    3.0003641861
H        0.3117642266    0.4650492856    3.0911474251
H        0.3754603710    0.3024274405    5.5494971678
29   

C        3.1676539258   -3.5334462059    1.9163637638
C        2.1351562070   -3.0602529336    1.1019229241
C        3.3175247890   -3.0282935605    3.2105817966
C        1.2538764888   -2.0843673891    1.5812671690
C        2.4326549635   -2.0566449979    3.6904315706
C        0.1842476973   -4.2671268857    4.4960817984
C        0.0636551023   -5.2718876989    3.5353409995
C       -1.7897350820   -3.2031774282    3.6097785855
C        1.3863902772   -1.5765131221    2.8832335265
C       -0.7305686792   -3.2087662456    4.5275260224
C       -0.9714973753   -5.2471559605    2.5941901027
C       -1.9149878713   -4.2036156875    2.6368354146
C        0.4412454624   -0.5694488990    3.3935683275
C        0.0186328725   -0.4506164304    4.6670491825
O       -1.7868683810   -1.4782321572    6.3419826202
O        0.5429036963   -2.1440266965    6.6846079953
S       -0.5093428163   -1.8299401467    5.7032337407
Cl      -1.0656422621   -6.5071848752    1.3833768957
Cl      -3.2294614630   -4.1239117615    1.4840692224
H        3.8518794872   -4.2879157204    1.5442465618
H        2.0152440495   -3.4509860699    0.0976475550
H        4.1200612537   -3.3872754228    3.8452955774
H        0.4535663379   -1.7334653848    0.9392780704
H        2.5618380164   -1.6742829207    4.6983376237
H        1.0067271485   -4.2957363011    5.2064247217
H        0.7894510894   -6.0757957935    3.5080175794
H       -2.5197410268   -2.3994763922    3.6348167802
H        0.0786712467    0.1633540320    2.6798959604
H       -0.2216004276    0.5206640249    5.0713857266
29   

C        3.1551147033   -3.5512157012    1.9809247679
C        2.1284484116   -3.0785931132    1.1586897370
C        3.3188390317   -3.0182604815    3.2623956927
C        1.2672689378   -2.0753316238    1.6175696098
C        2.4533928888   -2.0195559153    3.7218811565
C        0.1933129412   -4.2720062197    4.4212815268
C        0.0500175705   -5.2761067056    3.4631456681
C       -1.7967682800   -3.2031854860    3.5784969025
C        1.4135482124   -1.5401628956    2.9068730432
C       -0.7192077516   -3.2124674067    4.4743682702
C       -1.0055610396   -5.2492260193    2.5451854262
C       -1.9451862090   -4.2031674375    2.6081440707
C        0.4914195913   -0.4965766593    3.3940130478
C       -0.0667401049   -0.4280106557    4.6129763685
O       -1.7228730401   -1.5482876708    6.3760140515
O        0.6447349139   -2.1316468489    6.5668174468
S       -0.4748764917   -1.8412608197    5.6546260127
Cl      -1.1298672261   -6.5100413449    1.3378926882
Cl      -3.2846538636   -4.1209167450    1.4846953190
H        3.8242435209   -4.3265499331    1.6246066228
H        1.9975745186   -3.4905512635    0.1643171904
H        4.1169761152   -3.3762722623    3.9032005549
H        0.4714814410   -1.7235854679    0.9704185570
H        2.5929243249   -1.6145940448    4.7195920611
H        1.0308160393   -4.3028997952    5.1137491121
H        0.7733843038   -6.0815217180    3.4203962330
H       -2.5245531034   -2.3982611168    3.6195187285
H        0.2407904536    0.2911437922    2.6908091702
H       -0.4495025771    0.5116030135    4.9809127878
29   

C        3.1275710666   -3.5690429087    2.0181366263
C        2.1015646626   -3.0810680874    1.2039875700
C        3.3176010403   -3.0296324380    3.2934492823
C        1.2679350951   -2.0556992626    1.6646967832
C        2.4790378756   -2.0088947102    3.7547797653
C        0.2037204117   -4.2808645399    4.4061166110
C        0.0622448366   -5.2909268701    3.4539565001
C       -1.7950321645   -3.2273240185    3.5650701602
C        1.4412729649   -1.5138681593    2.9476182170
C       -0.7149049865   -3.2266636860    4.4578236895
C       -0.9970608720   -5.2748653170    2.5400533448
C       -1.9417385376   -4.2332600695    2.6006254231
C        0.5488647022   -0.4412576017    3.4356859218
C       -0.1477296657   -0.4286973687    4.5801756972
O       -1.7123648437   -1.5977880146    6.3909869975
O        0.6770385983   -2.1087512943    6.5122641629
S       -0.4769931785   -1.8506471920    5.6335721607
Cl      -1.1197427591   -6.5434320553    1.3407296621
Cl      -3.2859634278   -4.1642957031    1.4819330557
H        3.7756172343   -4.3613879089    1.6603088286
H        1.9498050033   -3.4979466606    0.2146454107
H        4.1151021927   -3.3998038794    3.9280846356
H        0.4723813955   -1.6907364038    1.0245901781
H        2.6371862329   -1.5986973495    4.7475693530
H        1.0439162505   -4.3033956203    5.0955996767
H        0.7897263837   -6.0926890107    3.4129608850
H       -2.5268572674   -2.4260474535    3.6041051303
H        0.4154269167    0.4061007528    2.7708477732
H       -0.6436489106    0.4749322727    4.9000976242
29   

C        1.9929510065   -3.0252089797    0.8731624703
C        1.0931116982   -1.9558512685    0.8726497182
C        2.7099206394   -3.3288093317    2.0337719852
C        0.9060534255   -1.1967878869    2.0332352461
C        2.5258538838   -2.5647940503    3.1917433325
C       -0.2611894774   -3.9911352562    5.4253912142
C        0.1592850883   -5.2871381089    5.1152568032
C       -0.9294688264   -3.6838787642    3.1295107677
C        1.6157291648   -1.4970033359    3.2072990660
C       -0.7924957663   -3.1691194882    4.4270581332
C        0.0484653783   -5.7902070020    3.8127789555
C       -0.5110396520   -4.9802658442    2.8086199435
C        1.4060280251   -0.7056417971    4.4417799888
C        0.2770703249   -0.6177839738    5.1553639018
O       -1.9174153056   -0.8275146175    3.6143771968
O       -2.1290477443   -1.3929742490    5.9856428900
S       -1.2765517802   -1.4461422823    4.7877277856
Cl       0.6084521010   -7.4105946918    3.4612419368
Cl      -0.6806521410   -5.5581496649    1.1647371609
H        2.1322390554   -3.6191959872   -0.0233482605
H        0.5353243415   -1.7155446926   -0.0256320521
H        3.4058193025   -4.1601380027    2.0374915088
H        0.2000923857   -0.3719119575    2.0222339753
H        3.0830351632   -2.8146169701    4.0875853880
H       -0.1653954442   -3.6185465038    6.4415547206
H        0.5815604613   -5.9155639740    5.8902903789
H       -1.3527824469   -3.0623524648    2.3454102969
H        2.2841225804   -0.2118292538    4.8453298434
H        0.2489755261   -0.0137715566    6.0492745407
29   

C        2.0058660253   -3.0173965246    0.8419778692
C        1.0975145991   -1.9562506234    0.8807616639
C        2.7354164480   -3.3488426162    1.9869295207
C        0.9136153546   -1.2341071198    2.0649818363
C        2.5541821990   -2.6220803232    3.1691646755
C       -0.2803908058   -3.9695837168    5.4410528096
C        0.1474845787   -5.2670952116    5.1477146060
C       -0.9390238675   -3.6917469496    3.1385428458
C        1.6336162947   -1.5642902764    3.2254498053
C       -0.8098097361   -3.1612052621    4.4306061656
C        0.0462057101   -5.7851265878    3.8503006154
C       -0.5121533982   -4.9893108306    2.8342872578
C        1.4256990953   -0.8172853644    4.4828525855
C        0.2570139186   -0.5880982184    5.0975551352
O       -1.9577073807   -0.8389873261    3.5931112104
O       -2.1332705364   -1.3617554612    5.9757350317
S       -1.2969987932   -1.4340557103    4.7674585603
Cl       0.6168242164   -7.4061873718    3.5195959966
Cl      -0.6689021322   -5.5856110583    1.1957585015
H        2.1428650364   -3.5826641132   -0.0732559693
H        0.5310467578   -1.6930095656   -0.0056073021
H        3.4390866748   -4.1731636419    1.9595094445
H        0.2028328558   -0.4135341938    2.0812733222
H        3.1216214440   -2.8949238086    4.0517310501
H       -0.1910924737   -3.5847993075    6.4532927135
H        0.5687482248   -5.8848145339    5.9318560464
H       -1.3611720231   -3.0812378573    2.3451808582
H        2.3212956637   -0.4531585542    4.9758574582
H        0.2095917347    0.1021314246    5.9258516242
29   

C        2.0454125185   -3.0038596198    0.8246833433
C        1.1179176178   -1.9606047909    0.8843992034
C        2.7789551271   -3.3465129130    1.9637078447
C        0.9186687683   -1.2678610507    2.0834585251
C        2.5821193811   -2.6495397995    3.1613484340
C       -0.2970605714   -3.9445752773    5.4543966494
C        0.1417115374   -5.2390969456    5.1638136264
C       -0.9605261327   -3.6784291247    3.1517665074
C        1.6419007246   -1.6102842881    3.2391436890
C       -0.8334334557   -3.1430317191    4.4421141947
C        0.0447856300   -5.7607910792    3.8674862425
C       -0.5216171461   -4.9724879416    2.8500814634
C        1.4140846867   -0.9000541771    4.5103590949
C        0.2256777130   -0.5425296280    5.0241797964
O       -2.0413553918   -0.8477056817    3.6165108010
O       -2.1177147982   -1.3336653683    6.0120098687
S       -1.3288064744   -1.4169174453    4.7729807657
Cl       0.6309746422   -7.3768874225    3.5397654272
Cl      -0.6725245538   -5.5731227675    1.2126220772
H        2.1945125405   -3.5462224737   -0.1024377192
H        0.5486793836   -1.6883606458    0.0025242261
H        3.4979794617   -4.1567418861    1.9195902079
H        0.1930818778   -0.4607707058    2.1143084938
H        3.1530156741   -2.9324678616    4.0384696023
H       -0.2103355370   -3.5563280619    6.4656017949
H        0.5687791261   -5.8513858749    5.9490734499
H       -1.3888493380   -3.0737977433    2.3571826285
H        2.2985529923   -0.6430932226    5.0842761063
H        0.1707708621    0.2408616870    5.7644288525
29   

C        2.1004507864   -3.0168033451    0.8191623639
C        1.1511825084   -1.9935994476    0.8806740766
C        2.8271234382   -3.3591092241    1.9626327090
C        0.9235397580   -1.3204717654    2.0857399844
C        2.6015341845   -2.6822635833    3.1667795300
C       -0.3173976305   -3.9387860976    5.4486816604
C        0.1291772478   -5.2253706138    5.1359277078
C       -1.0182708864   -3.6513026318    3.1595556368
C        1.6397857365   -1.6628277964    3.2464335943
C       -0.8752063827   -3.1298668002    4.4538762390
C        0.0191232591   -5.7316874688    3.8345644703
C       -0.5704314144   -4.9368843630    2.8354469155
C        1.3773105948   -0.9788394459    4.5233383938
C        0.1853130969   -0.5072739618    4.9364785143
O       -2.1748747580   -0.8581579466    3.7068374580
O       -2.0681481712   -1.3279571857    6.1051945371
S       -1.3724491886   -1.4097516955    4.8113919302
Cl       0.6184259661   -7.3367789812    3.4778732353
Cl      -0.7375965011   -5.5181497894    1.1926419368
H        2.2717692236   -3.5438063808   -0.1129597713
H        0.5871816358   -1.7220668671   -0.0047665082
H        3.5632156480   -4.1537637309    1.9167856803
H        0.1804137901   -0.5295811128    2.1172300141
H        3.1674362082   -2.9661849609    4.0467806346
H       -0.2192904155   -3.5615968820    6.4631346726
H        0.5735442452   -5.8429825122    5.9073052570
H       -1.4643026448   -3.0412660056    2.3789614958
H        2.2311490226   -0.8112291657    5.1718000243
H        0.1350024799    0.3730629927    5.5585779785
29   

C        2.2159813893   -3.0960850153    0.8618809279
C        1.2201574266   -2.1165921797    0.8824424832
C        2.9349297786   -3.3793406084    2.0261204916
C        0.9388630707   -1.4281618810    2.0673542918
C        2.6543708105   -2.6882088633    3.2104843932
C       -0.2940515331   -3.9445761237    5.4073773232
C        0.1525199021   -5.2094912986    5.0174062869
C       -1.1472661035   -3.5834660341    3.1810158038
C        1.6462131362   -1.7119363057    3.2490636939
C       -0.9270381209   -3.1086892105    4.4819918680
C       -0.0313521116   -5.6672633304    3.7066299816
C       -0.6984088069   -4.8469227067    2.7790891620
C        1.3243839411   -1.0170007913    4.5043598840
C        0.1282838398   -0.4729685229    4.8271813230
O       -2.3860001702   -0.8648611713    3.9773403244
O       -1.8971349408   -1.3594616110    6.3247345636
S       -1.4112127850   -1.4088173065    4.9367836589
Cl       0.5745721286   -7.2440779987    3.2493427680
Cl      -0.9582680408   -5.3679260250    1.1282706149
H        2.4296046579   -3.6344754803   -0.0548626126
H        0.6620447469   -1.8915580371   -0.0195530321
H        3.7080928698   -4.1392120340    2.0116353210
H        0.1606617074   -0.6716177704    2.0670764764
H        3.2155916298   -2.9270292179    4.1067085969
H       -0.1357891283   -3.6033011839    6.4271011543
H        0.6562900154   -5.8467533819    5.7343828101
H       -1.6530881270   -2.9524146968    2.4556241664
H        2.1360061986   -0.8841812572    5.2123515689
H        0.0776264323    0.5152000094    5.2575658313
29   

C        2.6769529389   -3.3423007792    1.2095418663
C        1.4367114417   -2.7072680453    1.1136489341
C        3.4648403104   -3.1557059810    2.3481322725
C        0.9840387716   -1.8921572846    2.1566484217
C        3.0073344736   -2.3449827125    3.3934404018
C       -0.1473042361   -3.9494778347    4.9855040985
C        0.1562916114   -5.1446148101    4.3320084447
C       -1.7287875025   -3.4167048844    3.2438809874
C        1.7560300269   -1.7111318615    3.3170730880
C       -1.0746682324   -3.0604209734    4.4313785100
C       -0.4659187067   -5.4830375386    3.1249738309
C       -1.4286440559   -4.6132603883    2.5794630188
C        1.2673555624   -0.8976570741    4.4350585254
C        0.0007845896   -0.4420834512    4.6481393599
O       -2.6472965772   -0.8558691013    4.7481415674
O       -1.3129641961   -1.5648043984    6.6815700784
S       -1.3825302856   -1.4441575034    5.2166551981
Cl      -0.0303270823   -6.9743876389    2.3196066261
Cl      -2.2405229121   -4.9904796966    1.0758170811
H        3.0269976500   -3.9755215668    0.4017955697
H        0.8223648425   -2.8475472599    0.2312642111
H        4.4307168271   -3.6426585404    2.4223905267
H        0.0209567760   -1.4034782411    2.0621983171
H        3.6298281532   -2.2185152905    4.2722156500
H        0.3543562219   -3.6998257336    5.9168005244
H        0.8921666936   -5.8169375221    4.7567561649
H       -2.4690000863   -2.7470171048    2.8145685805
H        2.0120116876   -0.5756477702    5.1559929414
H       -0.2001920146    0.6177691431    4.6289005426
29   

C        3.0106099630   -3.2112024251    1.1642685456
C        1.6684284482   -2.8281285184    1.1084068899
C        3.7865684989   -2.8578718928    2.2710476418
C        1.1046979782   -2.0933534892    2.1570351685
C        3.2185883128   -2.1300530844    3.3230279907
C       -0.2837920984   -3.9985080612    4.9701359732
C       -0.1003246902   -5.2144149043    4.3105045535
C       -1.9591204985   -3.3868318038    3.3459312264
C        1.8688635228   -1.7415967136    3.2828036226
C       -1.2007501712   -3.0626485228    4.4792517756
C       -0.8324454573   -5.5261970811    3.1592911033
C       -1.7799088059   -4.6043585485    2.6756107332
C        1.2769913305   -1.0028857039    4.3975854594
C       -0.0020855130   -0.5246148487    4.5430945662
O       -2.6424675280   -0.7913244788    4.9279903731
O       -1.1428569305   -1.5483859774    6.7284070889
S       -1.3654795570   -1.4326158144    5.2783610517
Cl      -0.5520620489   -7.0505773150    2.3465865720
Cl      -2.7258161090   -4.9465755540    1.2435774228
H        3.4485163988   -3.7786968279    0.3505343699
H        1.0618544440   -3.0998954661    0.2516984839
H        4.8300765639   -3.1491084865    2.3150470500
H        0.0634004173   -1.8006216966    2.0918684479
H        3.8368558823   -1.8688778066    4.1747700821
H        0.2999707714   -3.7726741714    5.8589012837
H        0.6248550058   -5.9257149343    4.6879870012
H       -2.6910842963   -2.6788609596    2.9663926317
H        1.9466467115   -0.7687142368    5.2190445366
H       -0.2404901170    0.4817960479    4.2367366391
29   

C        3.4365492590   -2.9928041362    1.0959569160
C        2.0396926124   -2.9561439056    1.1021386846
C        4.1498833069   -2.4219843585    2.1532314533
C        1.3587972535   -2.3449564260    2.1608874202
C        3.4670164083   -1.8190310601    3.2157469210
C       -0.4924767608   -4.1049134489    4.9853552801
C       -0.4781476835   -5.3502583756    4.3554560237
C       -2.1911693602   -3.3611432722    3.4421961988
C        2.0632571542   -1.7704198418    3.2319095748
C       -1.3390588715   -3.0920180417    4.5221492638
C       -1.3103747137   -5.6133116675    3.2612299181
C       -2.1821878325   -4.6078714971    2.8023943815
C        1.3546585436   -1.1353721192    4.3402092845
C        0.0527815110   -0.6746322947    4.4313703258
O       -2.5565965500   -0.7083198642    5.0328797633
O       -0.9771581638   -1.5576863986    6.7277627044
S       -1.3104751745   -1.4436780373    5.2988724073
Cl      -1.2485600172   -7.1827870081    2.4891518759
Cl      -3.2480208051   -4.8858732700    1.4422973455
H        3.9649961718   -3.4610329544    0.2728635664
H        1.4818956264   -3.4003080939    0.2852606928
H        5.2339426663   -2.4440352448    2.1491856454
H        0.2751175269   -2.3242756245    2.1487166245
H        4.0373178421   -1.3780950448    4.0259740115
H        0.1622244787   -3.9208016449    5.8336410702
H        0.1884853625   -6.1256846476    4.7145734537
H       -2.8694321135   -2.5905758822    3.0850976357
H        1.9435360303   -0.9851051588    5.2396601764
H       -0.2252326786    0.2107952439    3.8818934840
