42

C    -10.42897    0.92126   -1.04562
C     -9.79226   -0.05786   -0.27557
C     -9.72017    1.55886   -2.06935
C     -8.46067   -0.39515   -0.52710
C     -8.38853    1.22056   -2.31939
C     -5.81942   -0.18397   -3.12978
C     -5.43299   -0.40725   -0.77219
C     -4.49073   -0.52344   -3.37438
C     -4.09998   -0.74372   -1.02338
C     -7.73639    0.23852   -1.55255
C     -6.32227   -0.11950   -1.81812
C     -3.59522   -0.81383   -2.32885
C     -0.40516    1.69251   -1.76581
C     -2.29871   -3.57858   -2.61243
C     -1.72382   -3.12113   -1.24086
C     -2.05541   -2.39459   -3.56820
C     -1.32047   -1.64029   -1.43604
C     -2.13414   -1.14588   -2.65349
C     -1.47280    0.07837   -3.32033
N     -1.48764    1.26698   -2.47576
O      0.71605    1.19854   -1.81054
H    -11.46540    1.18393   -0.85058
H    -10.33648   -0.56697    0.51588
H    -10.20222    2.32752   -2.66816
H     -7.98570   -1.17730    0.05908
H     -7.84073    1.74213   -3.09980
H     -6.48359    0.00563   -3.96887
H     -5.77720   -0.34123    0.25661
H     -4.15028   -0.57252   -4.40569
H     -3.45307   -0.94672   -0.17709
H     -0.64330    2.56899   -1.13275
H     -1.83432   -4.49906   -2.97774
H     -3.37279   -3.77033   -2.52856
H     -2.47723   -3.22953   -0.45516
H     -0.86164   -3.72192   -0.93723
H     -1.04598   -2.45134   -3.99474
H     -2.76171   -2.37072   -4.40231
H     -1.44822   -1.03014   -0.53939
H     -0.25990   -1.57038   -1.69503
H     -1.97314    0.31570   -4.26498
H     -0.42619   -0.14016   -3.53999
H     -2.38320    1.69403   -2.27205
