33

C     -0.17293    0.82370   -2.05658
C     -0.31960    0.10174   -0.86505
C     -0.39820    0.19963   -3.28264
C     -0.69699   -1.23771   -0.92338
C     -0.77801   -1.14996   -3.35783
C     -0.92841   -1.86704   -2.15766
C     -3.42004   -4.32810   -1.10178
C     -0.96207   -1.80541   -4.71289
C     -1.75068   -3.11595   -4.64964
C     -1.21656   -4.00136   -3.52195
C     -5.24392   -5.55753   -0.18355
C     -4.04389   -6.38018    0.28804
C     -1.37584   -3.31554   -2.16077
N     -4.67498   -4.27310   -0.62498
N     -2.81418   -3.33457   -1.72281
S     -2.64476   -5.86831   -0.80586
H      0.12150    1.86904   -2.02702
H     -0.13420    0.57797    0.09325
H     -0.27547    0.76499   -4.20360
H     -0.80318   -1.80903   -0.00267
H     -1.44325   -1.10241   -5.39990
H      0.03204   -2.00734   -5.13317
H     -2.81703   -2.90944   -4.48788
H     -1.67931   -3.64305   -5.60508
H     -1.71222   -4.97769   -3.51171
H     -0.14725   -4.19050   -3.67141
H     -5.76230   -6.04334   -1.01721
H     -5.95076   -5.38645    0.63042
H     -3.77004   -6.15725    1.32036
H     -4.20368   -7.45142    0.16874
H     -0.82710   -3.86866   -1.39191
H     -5.27903   -3.48347   -0.83097
H     -3.33030   -2.47267   -1.87954
