24

C      0.45377    0.48958   -0.26201
C      0.03851   -0.61392   -0.92876
C      0.99245    1.70929   -0.88076
C     -0.06986   -1.43974    1.34829
C     -0.60880   -1.68334   -0.07120
C     -2.14413   -1.57758   -0.16092
C      1.85973    4.85906    0.75738
C      1.71761    3.93051   -0.43497
O      1.23247    1.86098   -2.06643
O      0.07086   -0.75282   -2.27802
O      1.18937    2.67523    0.05636
S      0.20989    0.37601    1.51214
H     -0.76715   -1.76862    2.12182
H      0.88818   -1.94821    1.48873
H     -0.29688   -2.68136   -0.40998
H     -2.48015   -0.61531    0.23619
H     -2.61739   -2.37793    0.41688
H     -2.49089   -1.65739   -1.19645
H      0.89088    5.03142    1.23546
H      2.54152    4.43664    1.50139
H      2.26007    5.82375    0.42862
H      2.67725    3.73973   -0.92423
H      1.03206    4.32975   -1.18821
H     -0.21706   -1.65143   -2.50526
