14   

C       -1.7012129454   -0.2960213098    0.1224634423
C        0.4076507823   -0.7134711401    0.1434816868
C        1.7730573129   -1.3318565289    0.0555675803
C        0.2773311457    0.8242679608    0.1942988081
N        1.3599986603    2.0364634667   -1.9204635363
N       -1.1913403765    0.9107805817    0.1734110517
N       -0.7573232599   -1.3065851806    0.0928062492
N        0.8674581438    1.4877483097   -0.9743675422
N        1.8227321580   -2.6275193672   -0.2958711529
O        2.7942548735   -0.6758142366    0.1563926481
H       -2.7726013194   -0.4823692783    0.1021527669
H        0.7086533509    1.2170892420    1.1246151211
H        2.7416932932   -3.0535887109   -0.3778387783
H        0.9748817540   -3.1820561443   -0.3717224893
14   

C       -1.7275824107   -0.3290890324    0.1145797556
C        0.3844786400   -0.7221975334    0.2211090475
C        1.7549254493   -1.3379939925    0.1760723541
C        0.2360204193    0.8170008366    0.1814011877
N        1.3651600080    1.9230668334   -1.9668717239
N       -1.2321881197    0.8847706684    0.1161513075
N       -0.7727556851   -1.3289301720    0.1573828234
N        0.8531004607    1.4207772543   -1.0054204703
N        1.8391590504   -2.5547442420   -0.3971478306
O        2.7630269083   -0.6945146726    0.4045187978
H       -2.7961170292   -0.5288646974    0.0780210530
H        0.6370819228    1.2651681763    1.1003131484
H        2.7654512952   -2.9661819060   -0.4722972845
H        1.0039074616   -3.1056320802   -0.5729554960
14   

C       -1.7320833114   -0.3396367578    0.0364997832
C        0.3690076636   -0.7524051844    0.2530198917
C        1.7269031564   -1.4014634872    0.2965033448
C        0.2382949966    0.7905043621    0.1545090687
N        1.4494550192    1.8094062049   -1.9920421035
N       -1.2252485761    0.8694672263    0.0287824252
N       -0.7904013074   -1.3472370334    0.1418426321
N        0.9031870387    1.3448995566   -1.0303283708
N        1.8911293754   -2.4848975083   -0.4952976491
O        2.7041994289   -0.8140446151    0.7219270574
H       -2.8004125787   -0.5304003050   -0.0361070295
H        0.6098944040    1.2665493302    1.0719894522
H        2.8224050411   -2.8917381766   -0.5178702396
H        1.0863759090   -3.0079353350   -0.8277210888
14   

C       -1.7359341187   -0.2954542680   -0.0232960217
C        0.3474558878   -0.7520451430    0.2677182009
C        1.6803901280   -1.4461387210    0.3928176440
C        0.2566422194    0.7940776668    0.1112689789
N        1.5184727040    1.7100201441   -2.0523517362
N       -1.2014340287    0.9015447346   -0.0504169599
N       -0.8214086870   -1.3211957171    0.1321531840
N        0.9520180973    1.2904105793   -1.0816221110
N        1.9729381869   -2.3616467768   -0.5622428206
O        2.5944296120   -0.9496812412    1.0234738545
H       -2.8065433223   -0.4638882397   -0.1147902635
H        0.6211364726    1.2942708792    1.0189038523
H        2.9039089826   -2.7675003854   -0.5129287034
H        1.2280398310   -2.8411744592   -1.0585866990
14   

C       -1.7548586497   -0.2761938102   -0.0058364109
C        0.3180538823   -0.7738718897    0.2958949870
C        1.6277624011   -1.5074585558    0.4643432764
C        0.2640426328    0.7698119380    0.0774664115
N        1.5193719426    1.5779296275   -2.1324585163
N       -1.1918619280    0.9057264427   -0.0812306450
N       -0.8648903227   -1.3171056814    0.1840942385
N        0.9576092358    1.2054720243   -1.1398991851
N        2.0526648457   -2.2348355626   -0.6018773895
O        2.4603669498   -1.1339638667    1.2677520530
H       -2.8297568342   -0.4221337108   -0.0847173192
H        0.6447621122    1.2968835981    0.9630935274
H        2.9774092538   -2.6454713513   -0.4977118610
H        1.3785477003   -2.6544071803   -1.2344331104
14   

C       -1.7687083869   -0.2444307087    0.0880008835
C        0.2996597480   -0.7920059971    0.3356095833
C        1.5871909244   -1.5656348305    0.5192980856
C        0.2807000240    0.7442573086    0.0490003350
N        1.4678709603    1.4385614721   -2.2361629124
N       -1.1754658249    0.9149871885   -0.0664714226
N       -0.9026853808   -1.3007155761    0.2984844930
N        0.9378867266    1.1155778613   -1.2092587435
N        2.1277107170   -2.0930091785   -0.6171458446
O        2.3279718405   -1.3600210914    1.4604760926
H       -2.8494215309   -0.3621609784    0.0541954546
H        0.7028503249    1.2985949578    0.8984941260
H        3.0406419199   -2.5214008193   -0.4805918842
H        1.5213923712   -2.4302060495   -1.3578041165
14   

C       -1.7830177684   -0.1867606182    0.2346006996
C        0.2774416643   -0.8051179342    0.3704896714
C        1.5384658250   -1.6240434986    0.5644918811
C        0.2934019919    0.7187467279    0.0131790579
N        1.3408095937    1.3017458315   -2.3696648746
N       -1.1600969577    0.9388694805   -0.0209015880
N       -0.9433364085   -1.2616559834    0.4514409125
N        0.8748661341    1.0260378616   -1.2986778518
N        2.1992214636   -1.9494307370   -0.5922723189
O        2.1493740710   -1.6549953337    1.6141005864
H       -2.8671260441   -0.2651844534    0.2737213592
H        0.7824269374    1.2947755704    0.8107053894
H        3.0890186930   -2.4162012140   -0.4276023243
H        1.6724150433   -2.1703881912   -1.4302864980
14   

C       -1.7838247096   -0.0935844560    0.3930578308
C        0.2545751482   -0.8047040013    0.3858589030
C        1.4831073331   -1.6721015969    0.5933588622
C        0.3027634664    0.7012822517   -0.0464225339
N        1.1355240407    1.1654317652   -2.5381980955
N       -1.1372286205    0.9876213885    0.0284528517
N       -0.9739299204   -1.1903154423    0.6051052071
N        0.7683970819    0.9394842761   -1.4179245248
N        2.2774708666   -1.8110286572   -0.5236492329
O        1.9037977153   -2.0168461146    1.6794894481
H       -2.8635079416   -0.1216936516    0.5214282694
H        0.8789867817    1.2921761511    0.6784915724
H        3.1231946236   -2.3477401174   -0.3380532985
H        1.8595900717   -1.8584430753   -1.4451203782
14   

C       -1.7643174463   -0.0258011949    0.5406393120
C        0.2390099571   -0.8274062185    0.3870258388
C        1.4329334211   -1.7487110592    0.5755436052
C        0.3093620072    0.6659019749   -0.0871899648
N        0.8846588484    1.0482937101   -2.6650506119
N       -1.1038249381    1.0200236616    0.1059339695
N       -0.9844208804   -1.1488014379    0.7152497768
N        0.6374098287    0.8568912488   -1.5056664258
N        2.3557810668   -1.7023535717   -0.4539749633
O        1.6675392202   -2.4013422056    1.5730374165
H       -2.8306930000   -0.0068276613    0.7538650360
H        0.9747119770    1.2508692427    0.5620657878
H        3.1535385707   -2.3148344355   -0.2902296220
H        2.0800791336   -1.4981330932   -1.4049955801
14   

C       -1.7460469668    0.0371906811    0.6137010259
C        0.2232454515   -0.8375290676    0.3737468881
C        1.3764366113   -1.8157945417    0.5457294184
C        0.3118612943    0.6465596772   -0.1325364808
N        0.6941516257    0.9219514523   -2.7604513662
N       -1.0726360510    1.0561414711    0.1380660099
N       -0.9954860949   -1.1082203204    0.7629428705
N        0.5380672179    0.7814890027   -1.5776112722
N        2.4332023924   -1.6226293154   -0.3283450838
O        1.4392935619   -2.6989873084    1.3780982084
H       -2.7989654042    0.0936900571    0.8804426704
H        1.0392870594    1.2248106582    0.4527700085
H        3.1873483953   -2.2960693136   -0.2010602565
H        2.3808290133   -1.0793334682   -1.1774499939
14   

C       -1.7412936978   -0.3642857998   -0.1677482925
C        0.3485540042   -0.7484078713    0.2830202006
C        1.6090552851   -1.5423752629    0.5939521648
C        0.1247883611    0.8000940600    0.3898817965
N        1.3799821091    2.1752432963   -1.5242099540
N       -1.3118943659    0.8463480534    0.0905987501
N       -0.7699708526   -1.3345435478   -0.0596393245
N        0.8305293847    1.5512220617   -0.6569084997
N        2.7542834529   -0.7673156778    0.7026709921
O        1.6974453560   -2.7535412830    0.6452149842
H       -2.7731701161   -0.5860238631   -0.4305308905
H        0.3500495569    1.1760387798    1.3962542792
H        3.5971866587   -1.3149558913    0.8706524132
H        2.7791077442    0.2385528674    0.7867732492
14   

C       -1.7515873146   -0.3570532470   -0.1091459296
C        0.3455043941   -0.7562158356    0.2806253148
C        1.6294302241   -1.5332064724    0.5137434681
C        0.1503806891    0.7957634342    0.3433430871
N        1.3996800427    2.0676440561   -1.6442239494
N       -1.2942392945    0.8553045905    0.0869158285
N       -0.7918658681   -1.3388669917    0.0011029110
N        0.8493624235    1.4923759985   -0.7446348027
N        2.7221039350   -0.7306094263    0.8123324212
O        1.7848931599   -2.7272682267    0.3492533420
H       -2.7951508657   -0.5707995579   -0.3288957619
H        0.4078585458    1.2017239710    1.3295126199
H        3.5815082259   -1.2648194620    0.9344417698
H        2.6628388420    0.2072365032    1.1839349692
14   

C       -1.7655442584   -0.3480601848   -0.0260272834
C        0.3426580357   -0.7366986184    0.2981037189
C        1.6517761835   -1.4883338979    0.4544104601
C        0.1542394689    0.8166830181    0.3084826950
N        1.3656364013    1.9935449266   -1.7587891971
N       -1.2986835628    0.8701292523    0.1011921613
N       -0.8041880844   -1.3286544753    0.0869320486
N        0.8297745231    1.4621309679   -0.8244719611
N        2.6887786218   -0.7091008631    0.9405229988
O        1.8705119907   -2.6257938670    0.0869200657
H       -2.8170578472   -0.5665788554   -0.1979842479
H        0.4457395151    1.2598804764    1.2682679263
H        3.5630719917   -1.2278010041    1.0136235277
H        2.5487457469    0.0999917556    1.5313032483
14   

C       -1.7528237650   -0.3387204729    0.0331723191
C        0.3658459686   -0.7068239256    0.2950943158
C        1.6941680767   -1.4335579347    0.3945407396
C        0.1715100070    0.8460139922    0.2580722620
N        1.3232392288    1.9394816174   -1.8870929340
N       -1.2884010838    0.8854038803    0.1014137821
N       -0.7832037871   -1.3122148311    0.1450701533
N        0.8126867258    1.4463781727   -0.9183984888
N        2.6691108802   -0.7380782834    1.0790351526
O        1.9760326019   -2.4710817752   -0.1717712059
H       -2.8087003256   -0.5666717795   -0.0939417725
H        0.4977872647    1.3241510424    1.1893008404
H        3.5540644240   -1.2418117726    1.1171301708
H        2.4522213284   -0.0763960381    1.8141858023
14   

C       -1.7483026430   -0.3420112229    0.1099700340
C        0.3815438403   -0.6771151668    0.2972371969
C        1.7274310793   -1.3741258488    0.3559239051
C        0.1693303269    0.8719650175    0.2097125435
N        1.2315169089    1.8764746603   -2.0230130070
N       -1.2965478292    0.8889912929    0.1140361456
N       -0.7637785535   -1.3019495512    0.2189164376
N        0.7599511351    1.4247321470   -1.0152863258
N        2.6324487356   -0.8119915624    1.2206433041
O        2.0871599500   -2.2498046709   -0.4060605099
H       -2.8058108454   -0.5847969640    0.0343414954
H        0.5337487882    1.3884659407    1.1058158486
H        3.5308329834   -1.2921078097    1.2239962640
H        2.3418744851   -0.3077750477    2.0503697723
14   

C       -1.6977550080   -0.3424981774    0.1868336422
C        0.4404894801   -0.6331122577    0.2944091480
C        1.8085438749   -1.2822926151    0.3324212919
C        0.2002034656    0.9080628477    0.1638755492
N        1.1750350830    1.8292974571   -2.1430026106
N       -1.2688178790    0.8955077112    0.1267396311
N       -0.6929355312   -1.2829249075    0.2944811014
N        0.7404780127    1.4174471815   -1.1022687319
N        2.6231474973   -0.8926953201    1.3556022831
O        2.2867494254   -1.8887878712   -0.6062787401
H       -2.7530980855   -0.6044079321    0.1616003743
H        0.5951869992    1.4596760991    1.0257627696
H        3.5498531991   -1.3131705210    1.3221275103
H        2.2481977636   -0.5885942908    2.2475695129
14   

C       -1.6792201592   -0.3257298027    0.3028304471
C        0.4597158670   -0.5986504840    0.3087769703
C        1.8439117054   -1.2027690333    0.3335417871
C        0.2068037792    0.9306732103    0.1116478431
N        1.0972967414    1.7218923638   -2.2756793304
N       -1.2627548253    0.9079500804    0.1431534775
N       -0.6637367959   -1.2548266856    0.4222358426
N        0.6970866854    1.3709868156   -1.1997201253
N        2.5802614216   -1.0076679452    1.4574601454
O        2.4268929447   -1.5108534718   -0.6885618737
H       -2.7329492777   -0.5920628547    0.3440123705
H        0.6390839270    1.5244086839    0.9266439706
H        3.5331198206   -1.3605662117    1.4004813022
H        2.1394458657   -0.8973285600    2.3647641485
14   

C       -1.6506828424   -0.3087638258    0.4286712971
C        0.4856122177   -0.5627934452    0.3410906135
C        1.8849345913   -1.1207718136    0.3602427515
C        0.2110497949    0.9472073669    0.0661652440
N        1.0135923348    1.6150472031   -2.3886315191
N       -1.2559732671    0.9133753949    0.1612105588
N       -0.6200172389   -1.2190804774    0.5691150416
N        0.6493645152    1.3202905872   -1.2837358832
N        2.5459333391   -1.1279410189    1.5393450526
O        2.5461946135   -1.1864116237   -0.6595111641
H       -2.6986705530   -0.5795448449    0.5352759365
H        0.6700767002    1.5874972683    0.8298584021
H        3.5162047829   -1.4289123288    1.4861507402
H        2.0474065369   -1.1753675003    2.4221958957
14   

C       -1.6202961343   -0.2732651793    0.5045789739
C        0.5117357388   -0.5169950385    0.3501013812
C        1.9224868327   -1.0388321313    0.3794549617
C        0.2160623447    0.9676361074   -0.0085262956
N        0.9370618663    1.5128885867   -2.5179831928
N       -1.2469328643    0.9294252192    0.1376934658
N       -0.5760551917   -1.1637770752    0.6727438965
N        0.6070266908    1.2719421881   -1.3898123480
N        2.4964020544   -1.2534288673    1.5800398381
O        2.6526426526   -0.9181051713   -0.5875643782
H       -2.6614336846   -0.5430948375    0.6664126666
H        0.6938509506    1.6542176617    0.7017376109
H        3.4763290737   -1.5242066258    1.5569873499
H        1.9350282259   -1.4280940524    2.4076281689
14   

C       -1.5905678934   -0.2622759761    0.5587001646
C        0.5419548465   -0.4705212327    0.3761538444
C        1.9677113205   -0.9442189985    0.4209996901
C        0.2114892658    0.9814541624   -0.0582800305
N        0.8754692965    1.4258627476   -2.6029593237
N       -1.2480058081    0.9238121062    0.1163445531
N       -0.5250726144   -1.1209759031    0.7573980557
N        0.5697753540    1.2279446644   -1.4598641592
N        2.4545427461   -1.3685678446    1.6010429526
O        2.7548205101   -0.6580574714   -0.4633968251
H       -2.6230000645   -0.5419283281    0.7558198765
H        0.6878007139    1.7132327973    0.6065835370
H        3.4412311229   -1.6128996706    1.6181330835
H        1.8351794604   -1.6603701988    2.3508138368
14   

C       -1.7191133490   -0.3010006778    0.1020440458
C        0.3696438190   -0.7438078203   -0.1461933379
C        1.7067045497   -1.3940819814   -0.3581411197
C        0.2963067926    0.7348939343    0.3039455367
N        1.2758950239    2.3982852865   -1.5364798657
N       -1.1669751755    0.8488427403    0.4061519519
N       -0.8126668400   -1.2971970404   -0.2115262968
N        0.8282325131    1.6523782096   -0.7105285091
N        1.8863852030   -2.6263303012    0.1450787747
O        2.6752121160   -0.7560420493   -0.7308216708
H       -2.7956754498   -0.4559392588    0.1020979106
H        0.8001089652    0.8793158210    1.2683356840
H        2.8140366355   -3.0298388057    0.0462002271
H        1.0975488444   -3.1945218313    0.4386839254
14   

C       -1.7062898458   -0.2967611989    0.1054570873
C        0.3901938733   -0.7301349238   -0.0835396648
C        1.7393819386   -1.3651612835   -0.2542185729
C        0.2961868070    0.7704192003    0.2705846787
N        1.2810452155    2.3379494410   -1.6494812615
N       -1.1694789945    0.8746722866    0.3479382041
N       -0.7857615827   -1.2988555968   -0.1414534476
N        0.8309714011    1.6336054417   -0.7891689004
N        1.8506531664   -2.6666299661    0.0501410765
O        2.7382609696   -0.7073320264   -0.4858973008
H       -2.7811266703   -0.4632599225    0.1032639868
H        0.7863181485    0.9783494786    1.2305672116
H        2.7746553210   -3.0829438300   -0.0257364869
H        1.0298487127   -3.2364311632    0.2325029393
14   

C       -1.7038650018   -0.2946997524    0.1229245412
C        0.3984774884   -0.7219934193   -0.0024243345
C        1.7559785486   -1.3451779884   -0.1433545785
C        0.2885924185    0.7959980554    0.2512724117
N        1.2921025473    2.2532360391   -1.7445542197
N       -1.1788023504    0.8934492034    0.3009013382
N       -0.7727444112   -1.3017809079   -0.0544563130
N        0.8339072596    1.5969931789   -0.8511722853
N        1.8288888149   -2.6803349572   -0.0529481647
O        2.7693990485   -0.6785011257   -0.2559877973
H       -2.7773371335   -0.4697260634    0.1177121249
H        0.7625621787    1.0674026983    1.2036445710
H        2.7498998693   -3.1037842931   -0.1245619693
H        0.9914541376   -3.2483116909    0.0365264945
14   

C       -1.7056332050   -0.3040976868    0.1194266807
C        0.4025670370   -0.7196837734    0.0677136265
C        1.7671851627   -1.3332383370   -0.0468988937
C        0.2749303119    0.8107605644    0.2196947955
N        1.3118508222    2.1517048374   -1.8395687754
N       -1.1938705042    0.8975790663    0.2336979045
N       -0.7631568221   -1.3110815782    0.0163965950
N        0.8391170931    1.5463885559   -0.9182402014
N        1.8233543802   -2.6665452237   -0.1770542315
O        2.7855101584   -0.6647318515   -0.0513001773
H       -2.7773559699   -0.4891569740    0.1063657107
H        0.7260442371    1.1454782298    1.1631149594
H        2.7434572159   -3.0912586433   -0.2524926703
H        0.9787711290   -3.2310853305   -0.1713117297
