24   

C       -1.2771637159   -1.2645802304    2.3564885813
C       -3.7708418927    0.3016008553    3.2429719199
C       -4.9904586694    0.8868078555    1.2460867111
C       -4.9040550195    0.5991466388    4.0099282824
C       -6.1164251155    1.1832731090    2.0223633029
C       -3.7937011450    0.4228059300    1.8364152359
C       -6.0858658473    1.0375889275    3.4099281638
C       -2.6854717471    0.1432730852    0.9320187222
C       -0.4564409175   -0.7184558733    0.1271765326
C       -1.5263417131   -0.5549163862    1.1402471041
C       -1.0326442937    0.8652722430   -3.0398957467
N       -1.0315930589   -1.8544657392    3.3305232832
N       -0.3216225912   -0.2253177749   -1.0874732655
O       -1.2771151202    0.6497251810   -1.6499604454
Cl      -7.4935116172    1.4048442165    4.3758601276
H       -2.8892346643    0.0044270557    3.7919118153
H       -5.0601377498    1.0118406121    0.1713560379
H       -4.8647966987    0.4939306650    5.0880252812
H       -7.0267285563    1.5290768790    1.5466012717
H       -2.8810100410    0.4903285635   -0.0686472571
H        0.3702828841   -1.3542840899    0.4249912115
H       -1.8510235366    1.4470923631   -3.4731676760
H       -0.9634614130   -0.0916199245   -3.5669664295
H       -0.0962960552    1.4150049432   -3.1745737208
24   

C       -1.4361945654   -1.3665102374    2.3140425020
C       -3.6802982300    0.5016422158    3.2274197237
C       -5.0665872739    0.7147059799    1.2621347233
C       -4.7935829125    0.7719084640    4.0322464489
C       -6.1731019499    0.9854722084    2.0754221749
C       -3.7981109251    0.4577746500    1.8240668906
C       -6.0481909380    1.0131071573    3.4665168972
C       -2.7027396075    0.1672812213    0.9032968785
C       -0.5348573204   -0.8388035069    0.1031537536
C       -1.6012822411   -0.6175782986    1.1064087115
C       -0.9015783316    0.9811820215   -2.9655050391
N       -1.2676069122   -1.9811835977    3.2889251216
N       -0.3388532065   -0.3021532004   -1.0837911562
O       -1.1988799297    0.6930568175   -1.5991582044
Cl      -7.4317952143    1.3480087119    4.4778865678
H       -2.7293550318    0.3535367391    3.7232107214
H       -5.2026202671    0.6947073061    0.1866799127
H       -4.6834009149    0.7986574145    5.1101725637
H       -7.1417102558    1.1736883348    1.6271840871
H       -2.9003682503    0.5052474284   -0.1015570615
H        0.2248380659   -1.5604999002    0.3830105317
H       -1.6609351042    1.6529683546   -3.3754049034
H       -0.8916835427    0.0592487024   -3.5556346287
H        0.0775292956    1.4634911542   -3.0418237324
24   

C       -1.5984257078   -1.4124312932    2.2558507855
C       -3.6271235848    0.6885040116    3.1730228056
C       -5.1322617909    0.5678907268    1.2889344638
C       -4.7160122103    0.9230313683    4.0209173436
C       -6.2156638883    0.8038856089    2.1435729029
C       -3.8174139897    0.5104993856    1.7909041406
C       -6.0181649505    0.9832533811    3.5158119652
C       -2.7281872320    0.2210183677    0.8545898188
C       -0.6438702660   -0.9404531781    0.0483966716
C       -1.6954988140   -0.6509689387    1.0481759948
C       -0.7885714143    1.0442117264   -2.9364022751
N       -1.4882939309   -2.0352864974    3.2337697662
N       -0.3936220669   -0.3879479747   -1.1205455708
O       -1.1595542395    0.6971912898   -1.6021838109
Cl      -7.3725759434    1.2748523326    4.5787878821
H       -2.6325570970    0.6599272858    3.6032119447
H       -5.3176844269    0.4212735427    0.2308243696
H       -4.5511650294    1.0587065148    5.0835023399
H       -7.2221596955    0.8443747435    1.7437849623
H       -2.9200153858    0.5702644645   -0.1484557428
H        0.0485477539   -1.7314763750    0.3149406538
H       -1.4819118319    1.7926671482   -3.3301134103
H       -0.8199366596    0.1608522565   -3.5821286694
H        0.2242818536    1.4579170906   -2.9477356717
24   

C       -1.7512687533   -1.4514899095    2.1936166392
C       -3.5938397902    0.8728109494    3.1108616059
C       -5.1726508497    0.4069260850    1.3454396928
C       -4.6546228145    1.0768119977    4.0010644472
C       -6.2293194163    0.6128680708    2.2406769256
C       -3.8387049712    0.5525955059    1.7658020581
C       -5.9806664812    0.9526689246    3.5744134997
C       -2.7520809865    0.2687134559    0.8132435211
C       -0.7574504527   -1.0260679655   -0.0113972747
C       -1.7896336607   -0.6794248021    0.9890873290
C       -0.6712168217    1.1048944088   -2.8962566857
N       -1.6910513156   -2.0855854961    3.1685748101
N       -0.4562688808   -0.4595217500   -1.1611428571
O       -1.1292711096    0.7005200400   -1.6060011368
Cl      -7.3012035518    1.2077938775    4.6881781505
H       -2.5749834525    0.9666658639    3.4703110342
H       -5.3909383840    0.1290455328    0.3204655497
H       -4.4497853903    1.3282331442    5.0351817834
H       -7.2536078571    0.5031272140    1.9041548380
H       -2.9310954633    0.6445356127   -0.1831562518
H       -0.1313989633   -1.8759165920    0.2374913332
H       -1.2940395462    1.9222842712   -3.2702342254
H       -0.7282813016    0.2680534300   -3.5995641061
H        0.3658110460    1.4484608338   -2.8348484896
24   

C       -1.9057538005   -1.5580154464    2.0812538947
C       -3.5778395607    1.0376248589    3.0230773660
C       -5.1808993591    0.2010525089    1.4263857924
C       -4.6075821292    1.2341892861    3.9507633759
C       -6.2076718861    0.3988779897    2.3576009439
C       -3.8562014732    0.5427831302    1.7410110205
C       -5.9317666067    0.9223524841    3.6252238770
C       -2.7725416628    0.2719534532    0.7684737499
C       -0.8533151195   -1.1063702074   -0.0957986140
C       -1.8775702890   -0.7419811384    0.9056471864
C       -0.5611459338    1.1784699477   -2.8458944412
N       -1.9033439522   -2.2339270532    3.0295561931
N       -0.4986575831   -0.5036637851   -1.2112302682
O       -1.0916166173    0.7175153776   -1.6032760826
Cl      -7.2148444107    1.1710253894    4.7833593997
H       -2.5556787072    1.2706662135    3.3002175667
H       -5.4141941310   -0.2205854681    0.4552003012
H       -4.3800606154    1.6258967780    4.9352797942
H       -7.2284146750    0.1400706524    2.1016120270
H       -2.9173627528    0.7232219065   -0.2020723500
H       -0.2859043760   -2.0049203894    0.1203436616
H       -1.1227390566    2.0531132359   -3.1857678791
H       -0.6363512915    0.3940604838   -3.6056116508
H        0.4899756576    1.4571234944   -2.7243248121
24   

C       -2.1254592048   -1.7787598016    1.9040558894
C       -3.6097858843    1.2638485812    2.9019650469
C       -5.1495685352   -0.0083291454    1.5500893830
C       -4.6310584278    1.5136052508    3.8265491931
C       -6.1683228788    0.2433071270    2.4769859084
C       -3.8589542731    0.5002980384    1.7545949253
C       -5.9191138901    1.0069937836    3.6224746015
C       -2.7809228899    0.2383431729    0.7674248840
C       -0.8697173521   -1.1465594225   -0.1158576746
C       -1.9584923745   -0.8398663736    0.8366322714
C       -0.4844360183    1.2012531981   -2.8019698592
N       -2.2380400091   -2.5588695831    2.7612988487
N       -0.4637460096   -0.5047958249   -1.1914814525
O       -1.0906657023    0.6871176439   -1.6163798596
Cl      -7.1914392401    1.3207299591    4.7766700503
H       -2.6165242661    1.6609204590    3.0790209034
H       -5.3598199084   -0.6060066736    0.6702224765
H       -4.4263278117    2.1026310047    4.7128815749
H       -7.1614685292   -0.1576986442    2.3118007634
H       -2.6925897917    0.9817287959   -0.0099398531
H       -0.3056564664   -2.0481980202    0.0961943292
H       -0.9863014809    2.1252246397   -3.1025690196
H       -0.5678431906    0.4728187369   -3.6144032373
H        0.5735607794    1.4156868970   -2.6221951341
24   

C       -2.3069882361   -1.9830405884    1.6962275213
C       -3.6724585056    1.4773764732    2.7332549376
C       -5.0763208709   -0.1945997034    1.7163771697
C       -4.6964668163    1.7853809758    3.6371507489
C       -6.0990414978    0.1152457879    2.6208128762
C       -3.8383306949    0.4617330580    1.7819738871
C       -5.9170294828    1.1041650244    3.5927546315
C       -2.7806753832    0.1955036753    0.7805720432
C       -0.8896963504   -1.1812122013   -0.1497358326
C       -2.0252426290   -0.9344989748    0.7637023620
C       -0.4524424285    1.2978435835   -2.7058617184
N       -2.5183060064   -2.8529866142    2.4409689224
N       -0.4507884365   -0.4796507968   -1.1736859818
O       -1.1105519848    0.6985807098   -1.5897299644
Cl      -7.1920071578    1.4879456145    4.7225786022
H       -2.7374469652    2.0242100472    2.7800963594
H       -5.2403322509   -0.9584982447    0.9643648600
H       -4.5478403893    2.5596173690    4.3807572315
H       -7.0435732408   -0.4137311128    2.5705729757
H       -2.4305294177    1.0724395812    0.2563378044
H       -0.3301547779   -2.0917377258    0.0343603840
H       -0.9038784603    2.2700104557   -2.9226922324
H       -0.5505167139    0.6567474620   -3.5871327185
H        0.6102016704    1.4434143711   -2.4874092103
24   

C       -2.4046582599   -2.0909214403    1.5684240601
C       -3.7337842518    1.6034464709    2.5970417838
C       -4.9901181546   -0.3179667533    1.8742243134
C       -4.7562706749    1.9326492299    3.4950852693
C       -6.0111134271    0.0128868215    2.7730569719
C       -3.8186970429    0.4536530014    1.7981605649
C       -5.9014171512    1.1374184455    3.5961119054
C       -2.7702458919    0.1739658063    0.8026811958
C       -0.9659101164   -1.2430111908   -0.2351610244
C       -2.0825399778   -0.9979280298    0.7024905639
C       -0.3852104194    1.3839161767   -2.6090804027
N       -2.6556519498   -2.9981952962    2.2540108949
N       -0.4932391565   -0.5000004554   -1.2140077568
O       -1.0890892225    0.7367098998   -1.5490115987
Cl      -7.1743466572    1.5479586565    4.7188025953
H       -2.8607196731    2.2428906008    2.5311686845
H       -5.1092943952   -1.1863220031    1.2356072587
H       -4.6656032933    2.8133543750    4.1201039062
H       -6.8991240872   -0.6055333445    2.8325845867
H       -2.3555492821    1.0568882548    0.3394880824
H       -0.4545757893   -2.1919184306   -0.1160097365
H       -0.7782426484    2.3945533121   -2.7506974280
H       -0.5094699588    0.8213205849   -3.5392639799
H        0.6814885567    1.4506028677   -2.3726300972
24   

C       -2.4681556909   -2.1957881392    1.4675561179
C       -3.8036281889    1.6728363096    2.4532801486
C       -4.9153170383   -0.4207628781    2.0429124787
C       -4.8104735251    2.0293214769    3.3582227188
C       -5.9201361708   -0.0616781477    2.9492651381
C       -3.8191535004    0.4288226513    1.8019796723
C       -5.8746742718    1.1631188570    3.6197755169
C       -2.7753754639    0.1255000407    0.8199558773
C       -1.0700904899   -1.3173055117   -0.3447821082
C       -2.1478895431   -1.0738024070    0.6391497175
C       -0.3367072723    1.4422993187   -2.5162375681
N       -2.7192383976   -3.1277101730    2.1193514634
N       -0.5791574650   -0.5436241813   -1.2906479943
O       -1.1053634542    0.7443681860   -1.5363181432
Cl      -7.1284249993    1.6081563363    4.7508635699
H       -2.9945044651    2.3701902165    2.2675304526
H       -5.0067454168   -1.3673620875    1.5229386180
H       -4.7701099709    2.9870029335    3.8639554586
H       -6.7477140316   -0.7373072879    3.1317005291
H       -2.3356117387    1.0043607715    0.3737962670
H       -0.6051881312   -2.2958803858   -0.2952900708
H       -0.6803843493    2.4780782795   -2.5866899931
H       -0.4516172970    0.9629732291   -3.4930602506
H        0.7227632453    1.4407278714   -2.2409252772
24   

C       -2.2737371196   -2.2027377419    1.9963086073
C       -3.9753148092    1.6762434266    2.9365146189
C       -4.7587528948   -0.4140081401    2.0437311949
C       -5.2723751605    1.9793829925    3.3661681951
C       -6.0546028106   -0.1072603089    2.4766823874
C       -3.6820258164    0.4639956177    2.2867020419
C       -6.3234814624    1.0881709541    3.1457103002
C       -2.3100903529    0.2317137599    1.8448447027
C       -0.2621333708   -1.0789495868    1.1806298108
C       -1.6589286615   -0.9563694792    1.6571434247
C        1.3767633497    2.0111970322    0.3915424774
N       -2.7490378392   -3.2344742953    2.2537207434
N        0.5922330065   -0.1689006021    0.7597223954
O        0.2377680415    1.1953302073    0.6661443077
Cl      -7.9411915951    1.4664914747    3.6834718374
H       -3.1858574699    2.3950083701    3.1253170066
H       -4.6280523079   -1.3377764662    1.4952093349
H       -5.4693270905    2.9150456921    3.8763942354
H       -6.8642357611   -0.8018875589    2.2849812249
H       -1.7246004434    1.1366501870    1.8123438252
H        0.1377852886   -2.0870144754    1.1667335917
H        1.0999907725    3.0670781462    0.4582135201
H        1.7505673829    1.8050840310   -0.6158650122
H        2.1730027793    1.8097057475    1.1152425535
24   

C       -2.2787732335   -2.2653115406    1.8134528296
C       -3.9962845835    1.7219053871    2.7596480457
C       -4.7500853089   -0.5027056508    2.2505015989
C       -5.2774499087    2.0544749144    3.2131715087
C       -6.0301677600   -0.1641028059    2.7073441996
C       -3.6928792103    0.4336197520    2.2785337927
C       -6.3062162005    1.1134763369    3.1952756623
C       -2.3293197772    0.1864521292    1.8271843570
C       -0.2970740633   -1.0805975695    1.0407641700
C       -1.6857161834   -0.9904576275    1.5528313242
C        1.4146467150    2.0353961886    0.5663178269
N       -2.7212043374   -3.3254345285    2.0070476868
N        0.5693762084   -0.1497533523    0.6948406972
O        0.2532193960    1.2256912343    0.7497535165
Cl      -7.9052722706    1.5282416854    3.7612133460
H       -3.2269982756    2.4851754248    2.7937380221
H       -4.6441678598   -1.5016364811    1.8550077218
H       -5.4788852973    3.0526893017    3.5841415221
H       -6.8238077721   -0.9017024739    2.6761464227
H       -1.7504739853    1.0933428990    1.7794337711
H        0.0895921414   -2.0874243986    0.9254878516
H        1.1618902834    3.0866949871    0.7302112683
H        1.7967685407    1.9168353899   -0.4520233041
H        2.1960259958    1.7463868071    1.2763643385
24   

C       -2.3531365370   -2.2647208777    1.4857633061
C       -4.0373138473    1.7617584251    2.5824339120
C       -4.7032566264   -0.5445049875    2.4588031237
C       -5.3148377148    2.1102356537    3.0331671018
C       -5.9805378486   -0.1874756388    2.9107219752
C       -3.6934809692    0.4284330712    2.2824798444
C       -6.2995296581    1.1386892310    3.2019054441
C       -2.3348400776    0.1771583629    1.8211768063
C       -0.3013225395   -1.0635477497    1.0021914871
C       -1.7116454066   -0.9874404719    1.4588991893
C        1.5226040267    2.0303166646    0.8205876667
N       -2.8188896809   -3.3326925426    1.4858577961
N        0.6190317333   -0.1357782436    0.8277143352
O        0.3671509413    1.2316917724    1.0743109628
Cl      -7.8947787655    1.5722367719    3.7645131984
H       -3.3050354928    2.5529718066    2.4668900055
H       -4.5754139431   -1.5965075867    2.2663550443
H       -5.5478009834    3.1451369485    3.2553312189
H       -6.7376046666   -0.9528095955    3.0376340326
H       -1.7597092794    1.0852030200    1.7753479116
H        0.0534409364   -2.0601628165    0.7622558730
H        1.2988880499    3.0801228359    1.0300014903
H        1.8240131404    1.9349532426   -0.2270786660
H        2.3503954988    1.7105978914    1.4610354084
24   

C       -2.4818608022   -2.1776019227    1.1753769128
C       -4.1143079998    1.7727998316    2.3881284294
C       -4.6148144859   -0.5605952122    2.6728124839
C       -5.3949062303    2.1051581480    2.8434186806
C       -5.8959404543   -0.2215240152    3.1263562651
C       -3.6926259620    0.4337010917    2.2776639051
C       -6.2999396875    1.1110347317    3.2132844231
C       -2.3392001839    0.1908555698    1.7946307267
C       -0.3272433548   -1.0673510635    0.9447228863
C       -1.7482016734   -0.9634153387    1.3553504108
C        1.5911308855    1.9581470818    1.1230632291
N       -3.0373496693   -3.1889491381    1.0150951984
N        0.6522500398   -0.1856930499    0.9548070226
O        0.4707400665    1.1301179741    1.4349667341
Cl      -7.8982376325    1.5255285208    3.7815586145
H       -3.4446892666    2.5788673402    2.1099034744
H       -4.3807601991   -1.6145009523    2.6783377740
H       -5.6930635968    3.1449292650    2.9112756501
H       -6.5851257227   -1.0039784411    3.4224634119
H       -1.7676453064    1.1008643444    1.7233556313
H       -0.0245049066   -2.0373226763    0.5652456446
H        1.3730628767    2.9939461312    1.3979096600
H        1.8082765612    1.9167051077    0.0509690456
H        2.4716562143    1.6214418421    1.6783919894
24   

C       -2.5846935480   -2.0896073050    1.0458646626
C       -4.2088710674    1.7545862782    2.2274564237
C       -4.5040965444   -0.5452241232    2.8624679702
C       -5.4917868886    2.0508238472    2.7020447761
C       -5.7876276763   -0.2446499453    3.3346797020
C       -3.6928330396    0.4471586397    2.2741271506
C       -6.2959095406    1.0531184492    3.2548744355
C       -2.3362554356    0.2226941760    1.7834328810
C       -0.3849479240   -1.0482448983    0.8198679551
C       -1.7901876614   -0.9211735942    1.2695007613
C        1.6519996484    1.8668473980    1.2795781243
N       -3.2013813703   -3.0600757340    0.8600159061
N        0.6261496040   -0.2068829802    0.8909923696
O        0.4968946396    1.0586627852    1.5052145536
Cl      -7.8970600896    1.4232228515    3.8453376374
H       -3.6143277393    2.5573575406    1.8060469106
H       -4.1565247563   -1.5618352918    2.9928846022
H       -5.8709017234    3.0643836369    2.6424223500
H       -6.3951691143   -1.0263990270    3.7757258440
H       -1.7677218270    1.1349126595    1.6967957868
H       -0.1292629129   -1.9936408933    0.3538484711
H        1.4722815270    2.8801835467    1.6494188987
H        1.8782053670    1.9175816150    0.2097241997
H        2.5130356801    1.4442833807    1.8060258252
24   

C       -2.6694733643   -1.9962839037    0.9651288803
C       -4.2953641371    1.7219343683    2.0819770173
C       -4.3911863389   -0.4900534415    3.0226822231
C       -5.5801201530    1.9851340393    2.5717736730
C       -5.6762948614   -0.2240534826    3.5103130269
C       -3.6882884040    0.4696779680    2.2700833705
C       -6.2853764738    1.0128288457    3.2848258169
C       -2.3200100562    0.2621683884    1.7899872250
C       -0.4414164336   -1.0097990048    0.6948875293
C       -1.8252607721   -0.8645447917    1.1978699391
C        1.7265679536    1.7664197200    1.3736759755
N       -3.3315572438   -2.9355311325    0.7758661301
N        0.5982382978   -0.2077713729    0.7956220844
O        0.5237923852    1.0093523833    1.5092230235
Cl      -7.8889387487    1.3417766381    3.8928481283
H       -3.7720444603    2.5000640956    1.5377923071
H       -3.9455653348   -1.4522588561    3.2470949812
H       -6.0377637822    2.9524059499    2.4000394424
H       -6.2061759067   -0.9826818862    4.0745438103
H       -1.7480197103    1.1740413575    1.7115717593
H       -0.2332420655   -1.9301928486    0.1603495892
H        1.5923848250    2.7563870736    1.8185086527
H        1.9832218005    1.8872381421    0.3164112979
H        2.5492682576    1.2565631144    1.8839232490
24   

C       -2.7295022250   -1.8871866803    0.8740094796
C       -4.3879118979    1.6611903013    1.9429041054
C       -4.2807531528   -0.4013307579    3.1789364435
C       -5.6725468712    1.8956408039    2.4479397500
C       -5.5654579807   -0.1650112818    3.6824058874
C       -3.6862883266    0.4921697844    2.2723346694
C       -6.2758355765    0.9821833752    3.3172061393
C       -2.3051512318    0.3077274377    1.7967008725
C       -0.4902750679   -0.9233527754    0.5590127960
C       -1.8518796346   -0.7833601709    1.1180459170
C        1.7861568753    1.7004295819    1.4569603050
N       -3.4211164247   -2.8022973405    0.6729782844
N        0.5699044840   -0.1533617034    0.6884121008
O        0.5415314115    1.0025671561    1.5006474533
Cl      -7.8792411228    1.2749690607    3.9438527017
H       -3.9388225191    2.3908514715    1.2785343635
H       -3.7457170305   -1.2909581639    3.4925874813
H       -6.2094046370    2.7942028092    2.1670823498
H       -6.0166747372   -0.8754659441    4.3651997651
H       -1.7310546538    1.2209692561    1.7469082803
H       -0.3214906221   -1.8073832870   -0.0460380856
H        1.6941628968    2.6535654383    1.9851493026
H        2.0748749047    1.8985902842    0.4198744028
H        2.5675212747    1.1030975788    1.9364258152
24   

C       -2.8004340056   -1.7610718881    0.7376872772
C       -4.4764760555    1.5485761284    1.8104882497
C       -4.1805235947   -0.2847690089    3.3438705214
C       -5.7652766312    1.7606458298    2.3149734033
C       -5.4692623275   -0.0707649308    3.8471923765
C       -3.6799458227    0.5031366708    2.2969097657
C       -6.2755157390    0.9502536557    3.3341391903
C       -2.2906528192    0.3347038069    1.8132430725
C       -0.5333943288   -0.8454381532    0.4513350217
C       -1.8815513458   -0.7065345451    1.0410199660
C        1.8450270118    1.6046882613    1.5514556165
N       -3.5267395096   -2.6341182520    0.4800627929
N        0.5524785930   -0.1219756325    0.6267271123
O        0.5689647899    0.9650500254    1.5293982781
Cl      -7.8840494831    1.2146702968    3.9602903983
H       -4.0977801253    2.1944948767    1.0263670835
H       -3.5676146496   -1.0760001747    3.7613125864
H       -6.3782995928    2.5603737904    1.9160741797
H       -5.8500134840   -0.6999996018    4.6431645921
H       -1.6941811411    1.2345957182    1.8441517419
H       -0.4016930570   -1.6839243410   -0.2236670037
H        1.7923937051    2.5134767280    2.1574688031
H        2.1522518474    1.8751216295    0.5362762912
H        2.5933502539    0.9332727350    1.9832974263
24   

C       -2.8983764006   -1.5266376057    0.4991797149
C       -4.5765559319    1.3523670284    1.6567012340
C       -4.0787118184   -0.1187921083    3.5019260073
C       -5.8829690987    1.5076830270    2.1356425191
C       -5.3860402567    0.0387057071    3.9777500415
C       -3.6613991638    0.5378197939    2.3353332071
C       -6.2993801680    0.8537642833    3.3002809131
C       -2.2727705683    0.3747913830    1.8349642537
C       -0.5455388976   -0.8083861601    0.4324010020
C       -1.9098598969   -0.6016636496    0.9640328724
C        1.9172431860    1.5269706646    1.5971485288
N       -3.6811474197   -2.2930828743    0.1042820731
N        0.5710393432   -0.1460462270    0.6519449119
O        0.6060548507    0.9683112847    1.5186623812
Cl      -7.9290441250    1.0499594287    3.8961925042
H       -4.2729537462    1.8633859026    0.7499086430
H       -3.3858197897   -0.7580895027    4.0374479014
H       -6.5839890501    2.1377148111    1.6007769659
H       -5.6999531570   -0.4761341322    4.8782101766
H       -1.5687437679    1.0982223625    2.2167018862
H       -0.4342023515   -1.6409222867   -0.2535814251
H        1.9124799477    2.3869088276    2.2727486036
H        2.2465843968    1.8567754690    0.6069918993
H        2.6224780332    0.7817769119    1.9778889307
24   

C       -2.9617718261   -1.2814193259    0.2511037306
C       -4.6675254885    1.1324346788    1.5429436662
C       -3.9880707729    0.0947509093    3.6117530476
C       -5.9775493935    1.2329043113    2.0260456854
C       -5.2997993170    0.1968764364    4.0907776233
C       -3.6519687322    0.5852748686    2.3401144060
C       -6.3046750424    0.7717013791    3.3054617629
C       -2.2745298067    0.4163310155    1.8226651801
C       -0.5623818029   -0.7623644059    0.4052300181
C       -1.9398718424   -0.4912049836    0.8676235329
C        1.9240849292    1.4800632609    1.6927487406
N       -3.7736333858   -1.9336051586   -0.2701235769
N        0.5679605532   -0.1484456699    0.6856644695
O        0.5938656751    0.9914722101    1.5201941798
Cl      -7.9390670281    0.9005779348    3.9067628034
H       -4.4376425581    1.4813898267    0.5422895904
H       -3.2278302362   -0.3685183099    4.2304766503
H       -6.7512337065    1.6660813214    1.4029541501
H       -5.5468010948   -0.1770178597    5.0775012340
H       -1.5028969420    0.8301443648    2.4550435120
H       -0.4556512685   -1.5885977781   -0.2890443129
H        1.9302658991    2.2795874827    2.4388190567
H        2.3037934246    1.8755677438    0.7458173983
H        2.5834677005    0.6752809313    2.0328516264
24   

C       -2.9913532840   -1.1581556799    0.0718948893
C       -4.7467400744    0.9689593597    1.4977951086
C       -3.9207629511    0.2964010866    3.6637401211
C       -6.0384621103    1.0739510933    2.0267561198
C       -5.2150071658    0.4038661001    4.1869722556
C       -3.6664225934    0.5959790239    2.3136018339
C       -6.2841504195    0.7964516731    3.3752498748
C       -2.3050202075    0.4131539902    1.7825601359
C       -0.5940153153   -0.6715915528    0.2891256458
C       -1.9741429113   -0.4198921491    0.7565050256
C        1.9158379216    1.3962187499    1.8044302627
N       -3.8006300945   -1.7616231670   -0.5087461233
N        0.5418085491   -0.0987400657    0.6288060644
O        0.5766864900    0.9715602702    1.5506625867
Cl      -7.8971123434    0.9283899081    4.0312454271
H       -4.5858510994    1.1813134054    0.4465578674
H       -3.1114107255   -0.0249473671    4.3095887069
H       -6.8613404958    1.3676981517    1.3855450046
H       -5.3981398558    0.1755961964    5.2304351716
H       -1.5241624108    0.7461429671    2.4499952632
H       -0.4891679951   -1.4425352275   -0.4663735970
H        1.9231846467    2.1325947114    2.6128840357
H        2.3408991553    1.8522667826    0.9052250771
H        2.5358991808    0.5435047072    2.0987036831
24   

C       -2.9769790721   -1.0997142934   -0.0861690768
C       -4.8125616283    0.7837643533    1.4792346499
C       -3.8572551228    0.4598170298    3.6730562081
C       -6.0809969867    0.9142331294    2.0568411661
C       -5.1291419628    0.5925077019    4.2427751783
C       -3.6781661000    0.5576892843    2.2793291669
C       -6.2515685690    0.8204300369    3.4412185832
C       -2.3295670035    0.3707284678    1.7380345428
C       -0.5975889307   -0.5717385293    0.1711812182
C       -1.9841849656   -0.3786066222    0.6501094653
C        1.8980439289    1.3219911232    1.9190131752
N       -3.7657188407   -1.6864359381   -0.7107108218
N        0.5320080524   -0.0197080860    0.5631116106
O        0.5590060805    0.9644014046    1.5765064143
Cl      -7.8366755744    0.9827373601    4.1556908596
H       -4.7219566217    0.8736536527    0.4027803193
H       -3.0071150756    0.2721624797    4.3192185392
H       -6.9444121617    1.0888613523    1.4254227932
H       -5.2525742417    0.5138291653    5.3165881697
H       -1.5479442757    0.6761994675    2.4167252268
H       -0.4794639506   -1.2762537765   -0.6448516609
H        1.8930871947    1.9797880224    2.7926245950
H        2.3710899430    1.8458205819    1.0829655927
H        2.4824433464    0.4270528084    2.1553130798
24   

C       -2.9449636422   -1.0321509268   -0.2525743707
C       -4.8737901653    0.5948560569    1.4802873366
C       -3.7998424452    0.6202071600    3.6427355037
C       -6.1164295149    0.7575646659    2.1044422547
C       -5.0468069730    0.7842915635    4.2569654936
C       -3.6901476515    0.5129796329    2.2400943754
C       -6.2158186375    0.8509042029    3.4950321276
C       -2.3529707718    0.3251781605    1.6844087405
C       -0.5894570960   -0.4555660345    0.0613170843
C       -1.9843552283   -0.3311422658    0.5425998709
C        1.8809919987    1.2409339393    2.0317057066
N       -3.7035223344   -1.6042697090   -0.9263029459
N        0.5310453942    0.0726029378    0.5094197355
O        0.5464926078    0.9542410180    1.6131010667
Cl      -7.7699857981    1.0522469289    4.2653639788
H       -4.8586590480    0.5594503339    0.3983696762
H       -2.9147154953    0.5656197985    4.2664996009
H       -7.0161881054    0.8157692956    1.5029215840
H       -5.1135486504    0.8579993776    5.3361591135
H       -1.5724696115    0.6211211714    2.3671307671
H       -0.4532188933   -1.0827695632   -0.8129591695
H        1.8613542574    1.8121149239    2.9640720113
H        2.3952058312    1.8291858989    1.2657877419
H        2.4353461859    0.3120494921    2.1995868464
24   

C       -2.9246147702   -0.9212392085   -0.4116886169
C       -4.9312522592    0.3843837237    1.5179366623
C       -3.7690450264    0.7738806212    3.5951830499
C       -6.1520284029    0.5739485029    2.1772520100
C       -4.9945459658    0.9634769274    4.2436515536
C       -3.7078099340    0.4632814722    2.2183410361
C       -6.1969459710    0.8603646989    3.5428539418
C       -2.3785682327    0.2853814995    1.6476461740
C       -0.5904554903   -0.3402175059   -0.0161636095
C       -1.9932225468   -0.2726569041    0.4582696633
C        1.8714672803    1.1268078423    2.1422476382
N       -3.6482810226   -1.4567560929   -1.1509682893
N        0.5260080324    0.1428197321    0.4906041043
O        0.5391037659    0.9041951720    1.6802708777
Cl      -7.7249243275    1.0939149649    4.3553262685
H       -4.9876006732    0.2034159988    0.4544481439
H       -2.8598555302    0.8607853302    4.1794362034
H       -7.0791205633    0.5035900034    1.6200676601
H       -5.0174048230    1.1918497803    5.3028508338
H       -1.5997631841    0.5790001751    2.3313986950
H       -0.4410074429   -0.8785246429   -0.9458571782
H        1.8466834372    1.6120249659    3.1220058752
H        2.4083104001    1.7718646938    1.4402527228
H        2.4063815300    0.1761459338    2.2336327808
24   

C       -2.9225535721   -0.6402067701   -0.5815579377
C       -4.9507859729    0.1258853737    1.6127696218
C       -3.7594659596    0.9528811709    3.5348599623
C       -6.1598499039    0.3241155097    2.2912593960
C       -4.9729364291    1.1472009933    4.2037600702
C       -3.7113908060    0.4357510970    2.2202635520
C       -6.1844981971    0.8346430858    3.5889887358
C       -2.3866524486    0.2816717306    1.6344289465
C       -0.5832668282   -0.2680428199   -0.0392431816
C       -1.9963171791   -0.1813317332    0.4059734288
C        1.9222682693    0.8711120355    2.2750562592
N       -3.6274873100   -1.0264442037   -1.4249394064
N        0.5474287121    0.0606999286    0.5537389718
O        0.5832345092    0.6162372547    1.8516271746
Cl      -7.6984752601    1.0773281195    4.4246378172
H       -5.0484349160   -0.2716538406    0.6156317478
H       -2.8449222005    1.2118673112    4.0565103164
H       -7.0952919090    0.0777187533    1.8021270787
H       -4.9784031003    1.5450961524    5.2118491321
H       -1.6129179210    0.5906383967    2.3150674097
H       -0.4367678682   -0.6731177263   -1.0347547286
H        1.9167203693    1.2856400808    3.2870594700
H        2.4003244111    1.5888041116    1.6013368087
H        2.5009754425   -0.0577249013    2.2766517103
