42

C      2.15594   -1.45936    1.72235
C      0.83782   -1.31993    1.27492
C      2.63704   -2.72071    2.10480
C     -0.03138   -2.41764    1.20261
C     -0.98687   -8.79734    0.64224
C     -1.36392   -7.11087   -1.03707
C      1.78607   -3.81737    2.03894
C     -1.43849   -7.52136    0.30014
C      0.46271   -3.66438    1.59732
C     -0.47546   -9.67004   -0.32287
C     -0.43160   -9.28074   -1.67888
C     -0.87007   -7.98481   -2.00215
C     -1.48030   -5.15698    1.20260
C      2.06479   -5.27422    2.33196
C      0.70413  -12.25598   -1.78011
C      0.65847   -5.91296    2.32036
C      1.09577  -11.46775   -0.53085
C     -0.31937  -11.47535   -2.60514
C     -1.99755   -6.58585    1.35839
N     -0.20261   -4.91629    1.63928
O     -2.18028   -4.28961    0.67681
O     -0.05757  -10.90401    0.12421
O      0.03375  -10.08091   -2.68982
Cl    -0.81071   -7.46916   -3.67428
H      2.80819   -0.59168    1.77133
H      0.47239   -0.34078    0.97625
H      3.66312   -2.83950    2.44551
H     -1.04948   -2.31443    0.85373
H     -1.00592   -9.14363    1.67219
H     -1.69718   -6.12035   -1.33007
H      2.69617   -5.70719    1.54730
H      2.57193   -5.43181    3.28765
H      1.60864  -12.44976   -2.36761
H      0.27123  -13.22488   -1.50708
H      0.63826   -6.86418    1.78907
H      0.29255   -6.07324    3.34167
H      1.56667  -12.11418    0.21350
H      1.79554  -10.66420   -0.78163
H     -0.35481  -11.83059   -3.63743
H     -1.32126  -11.56675   -2.17435
H     -3.08389   -6.51430    1.26045
H     -1.77932   -6.98193    2.35460
