22

C      1.63119   -0.29799    0.50289
C      2.64545   -0.56037    1.42423
C      0.31353   -0.12241    0.94633
C      2.30554   -0.63958    2.77671
C     -0.05177   -0.19796    2.30165
C      0.98308   -0.46310    3.21794
C      3.13566   -0.89781    3.95877
C     -1.48866    0.00832    2.63725
C      2.14884   -0.84830    5.13153
C     -3.11736    0.10759    4.33681
O      4.33516   -1.10891    4.04377
O     -2.34876    0.23824    1.80244
O      0.84467   -0.57591    4.56592
O     -1.73915   -0.08561    3.95781
H      1.85442   -0.22848   -0.55732
H      3.67843   -0.70235    1.11843
H     -0.48118    0.08209    0.23528
H      2.10876   -1.80265    5.66331
H      2.40096   -0.04855    5.83312
H     -3.13339    0.00850    5.42182
H     -3.75026   -0.65039    3.86941
H     -3.46058    1.09919    4.03302
