20

C      1.81752   -0.80384   -0.04443
C      1.82644   -1.36376    2.70472
C     -3.50021    1.64453    0.78298
C     -2.70100    2.41533    1.59653
C      0.61047   -0.74581    0.67276
C      3.00384   -1.10175    0.60279
C      0.64673   -1.04594    2.03781
C      3.00760   -1.37791    1.97422
C     -1.61177    0.53858    0.49139
C     -0.64760   -0.43923   -0.09073
N     -2.87678    0.60115    0.15831
O     -0.83566   -0.92817   -1.19349
F      4.16702   -1.13500   -0.07557
F     -0.50277   -1.07890    2.74983
F      4.16783   -1.67051    2.58343
S     -1.09428    1.80026    1.60314
H      1.81854   -0.61170   -1.11264
H      1.82407   -1.60617    3.76195
H     -4.55814    1.81459    0.61400
H     -2.97257    3.29326    2.16863
