30

C     -4.46422    2.51008    0.57594
C     -4.31955    3.74552    1.23514
C     -3.39118    1.62462    0.47851
C     -3.10599    4.13152    1.81150
C     -0.03640    2.14626    1.79928
C     -2.16320    1.98967    1.04792
C     -0.87830    1.31675    1.12221
C     -2.03701    3.23774    1.70686
C     -0.15641    4.40112    2.87982
C      0.82453   -0.66959    0.74507
C      0.06367   -1.99459    0.99739
C     -0.57165   -0.02738    0.54992
C      1.29914    4.26321    3.28437
N     -0.70680    3.33038    2.17202
N     -1.16669   -1.20036    1.27081
O     -0.81901    5.39157    3.15482
H     -5.42459    2.24574    0.14120
H     -5.17048    4.41837    1.29980
H     -3.50648    0.66968   -0.02795
H     -2.99307    5.08040    2.31831
H      1.00259    2.00413    2.05237
H      1.32511   -0.31092    1.64728
H      1.51293   -0.62946   -0.10095
H      0.00973   -2.61358    0.09016
H      0.39024   -2.61677    1.83679
H     -0.83692   -0.02979   -0.51948
H      1.94682    4.15322    2.40900
H      1.45147    3.39309    3.93043
H      1.57994    5.16578    3.82625
H     -2.01823   -1.56750    0.84905
