47

C      8.13576   -3.56548    1.05247
C      7.05848   -7.09646    1.42889
C      5.69987   -7.01359    1.09676
C      7.83226   -5.94069    1.40391
C      5.12843   -5.79414    0.74621
C      5.63432   -2.04445    0.19986
C      4.47923   -1.30244   -0.20058
C      7.26353   -4.70317    1.05062
C      5.88761   -4.60510    0.71178
C      5.24074   -3.35730    0.33854
C      3.44765   -2.19670   -0.28444
C      0.34830    1.74996    0.26408
C      0.27557    1.22117   -1.19347
C     -1.14067   -0.01012    1.36679
C      1.37241   -0.42679    1.01633
C     -0.98631   -0.97688   -0.87713
C      0.26868    0.60743    1.29022
C      0.36775   -0.31185   -1.23597
C     -3.12160   -0.75366    0.22353
C      2.00533   -2.06743   -0.67152
N      8.87275   -2.66184    1.06469
N     -1.78342   -0.19967    0.06851
N      1.51501   -0.72527   -0.41731
O      3.89072   -3.44753    0.04269
H      7.50530   -8.04758    1.70260
H      5.08212   -7.90763    1.11163
H      8.88753   -5.97598    1.65680
H      4.07608   -5.74501    0.49178
H      6.62564   -1.65062    0.36418
H      4.40863   -0.24246   -0.40059
H      1.29263    2.28355    0.41833
H     -0.45753    2.46660    0.45004
H     -0.65623    1.53664   -1.66947
H      1.10615    1.62667   -1.77897
H     -1.08368   -0.95972    1.93668
H     -1.78513    0.66343    1.94456
H      2.32798   -0.04651    1.39673
H      1.15431   -1.34529    1.58750
H     -1.57813   -1.06424   -1.79556
H     -0.80797   -2.01109   -0.51999
H      0.47088    1.01316    2.28862
H      0.60652   -0.61560   -2.26086
H     -3.61942   -0.80286   -0.75040
H     -3.71681   -0.10592    0.87568
H     -3.12303   -1.77092    0.66111
H      1.90334   -2.27991   -1.74347
H      1.43672   -2.85421   -0.14097
