42

C     -5.93623   -4.31967    5.43857
C     -4.59954   -3.97627    5.22435
C     -6.83641   -4.31279    4.36192
C     -4.12965   -3.62996    3.94903
C     -0.88417   -4.97023   -0.00641
C     -0.64080   -2.58772   -0.25001
C     -6.38176   -3.97516    3.09420
C     -1.27067   -3.67946    0.35564
C     -5.02895   -3.64870    2.87742
C      0.10692   -5.18796   -0.96702
C      0.72362   -4.09308   -1.60957
C      0.33755   -2.80047   -1.21676
C     -3.70834   -3.14273    0.74742
C     -7.13999   -3.90373    1.78806
C      2.10843   -6.59048   -3.02404
C     -6.16391   -3.15115    0.86273
C      1.78848   -6.79493   -1.54337
C      1.49691   -5.28194   -3.52588
C     -2.35466   -3.46994    1.38434
N     -4.84141   -3.32414    1.51126
O     -3.80416   -2.75009   -0.41317
O      0.40825   -6.50199   -1.25516
O      1.69075   -4.21803   -2.57419
Cl     1.09626   -1.42109   -1.98652
H     -6.27968   -4.57810    6.43622
H     -3.90479   -3.96188    6.05997
H     -7.88285   -4.56472    4.51801
H     -3.09514   -3.33764    3.83139
H     -1.33528   -5.84362    0.45681
H     -0.92628   -1.57221    0.00359
H     -7.34221   -4.91264    1.40824
H     -8.09877   -3.38706    1.87988
H      3.19731   -6.58202   -3.14814
H      1.71190   -7.41746   -3.62392
H     -6.12120   -3.53836   -0.15439
H     -6.39862   -2.08241    0.80706
H      1.93447   -7.83667   -1.24753
H      2.42912   -6.16618   -0.91686
H      1.97905   -4.94295   -4.44571
H      0.42648   -5.39946   -3.72070
H     -2.45099   -4.35728    2.01486
H     -2.08702   -2.63787    2.04612
