24   

C       -1.2781325220   -1.2659338733    2.3558990885
C       -3.7704654646    0.3022871121    3.2429989733
C       -4.9904586694    0.8868078555    1.2460867111
C       -4.9035448847    0.6000850657    4.0100537295
C       -6.1162768162    1.1835531381    2.0224738665
C       -3.7937011450    0.4228059300    1.8364152359
C       -6.0854771445    1.0382900668    3.4100905488
C       -2.6854717471    0.1432730852    0.9320187222
C       -0.4559275956   -0.7175783116    0.1276010203
C       -1.5263417131   -0.5549163862    1.1402471041
C       -1.0324564132    0.8666821614   -3.0389176996
N       -1.0334142893   -1.8567799092    3.3295638965
N       -0.3204904917   -0.2232681070   -1.0864968416
O       -1.2756951623    0.6523584558   -1.6485703392
Cl      -7.4929706246    1.4058282332    4.3761371085
H       -2.8886312354    0.0053568413    3.7917384252
H       -5.0602633243    1.0115532212    0.1713311549
H       -4.8640940005    0.4952630036    5.0881816310
H       -7.0266494783    1.5292510860    1.5467673496
H       -2.8809220113    0.4903962214   -0.0686529334
H        0.3705343437   -1.3538499248    0.4251932049
H       -1.8512177692    1.4481155764   -3.4719863924
H       -0.9637278333   -0.0906588989   -3.5652393220
H       -0.0962265145    1.4162941576   -3.1748881246
24   

C       -1.4370494902   -1.3674274587    2.3135917132
C       -3.6799366345    0.5025455278    3.2273299335
C       -5.0665872739    0.7147059799    1.2621347233
C       -4.7930805885    0.7732108833    4.0322175014
C       -6.1729450958    0.9859040446    2.0754934038
C       -3.7981109251    0.4577746500    1.8240668906
C       -6.0477932143    1.0141372930    3.4665687015
C       -2.7027396075    0.1672812213    0.9032968785
C       -0.5344302281   -0.8381990020    0.1035016550
C       -1.6012822411   -0.6175782986    1.1064087115
C       -0.9013560863    0.9824948317   -2.9645162863
N       -1.2691794369   -1.9827291924    3.2881996284
N       -0.3377573120   -0.3005030545   -1.0828513992
O       -1.1973898835    0.6953250678   -1.5976864996
Cl      -7.4312337719    1.3494848445    4.4780148401
H       -2.7288251376    0.3545974219    3.7228717251
H       -5.2027363596    0.6943093442    0.1867023192
H       -4.6827223562    0.8004719514    5.1101123242
H       -7.1416147751    1.1739989178    1.6273369752
H       -2.9001452847    0.5056848065   -0.1014660574
H        0.2248736572   -1.5604323691    0.3830329189
H       -1.6611153631    1.6539549949   -3.3742040325
H       -0.8919513083    0.0601599748   -3.5540325627
H        0.0776621622    1.4647861664   -3.0420553465
24   

C       -1.5991346578   -1.4130347298    2.2555269372
C       -3.6268552941    0.6896169072    3.1728114540
C       -5.1322617909    0.5678907268    1.2889344638
C       -4.7156456231    0.9246406101    4.0206967346
C       -6.2155478465    0.8044206229    2.1435724271
C       -3.8174139897    0.5104993856    1.7909041406
C       -6.0178716083    0.9845269591    3.5157023771
C       -2.7281872320    0.2210183677    0.8545898188
C       -0.6435336553   -0.9400534475    0.0486615347
C       -1.6954988140   -0.6509689387    1.0481759948
C       -0.7882332182    1.0453814077   -2.9354860266
N       -1.4895803895   -2.0363189497    3.2332359314
N       -0.3925518639   -0.3866130982   -1.1196730950
O       -1.1579385079    0.6991861471   -1.6006928226
Cl      -7.3721613966    1.2766802311    4.5786807907
H       -2.6321801312    0.6612555518    3.6027768019
H       -5.3177565472    0.4207909614    0.2309040761
H       -4.5506787500    1.0609523893    5.0831813533
H       -7.2220871829    0.8447635963    1.7438791824
H       -2.9196164323    0.5711511462   -0.1482333404
H        0.0483628274   -1.7316675231    0.3148026385
H       -1.4819902155    1.7935388144   -3.3290290845
H       -0.8201339446    0.1616272617   -3.5806517353
H        0.2245823518    1.4591388933   -2.9480122336
24   

C       -1.7518900927   -1.4519595319    2.1933339705
C       -3.5937309368    0.8741194289    3.1105012064
C       -5.1726508497    0.4069260850    1.3454396928
C       -4.6544892355    1.0786817096    4.0006076936
C       -6.2292762703    0.6134743080    2.2405873492
C       -3.8387049712    0.5525955059    1.7658020581
C       -5.9805551124    0.9541266893    3.5741055032
C       -2.7520809865    0.2687134559    0.8132435211
C       -0.7571610754   -1.0257607426   -0.0111798070
C       -1.7896336607   -0.6794248021    0.9890873290
C       -0.6707242221    1.1059916456   -2.8953725385
N       -1.6921776926   -2.0864185451    3.1680858869
N       -0.4551406798   -0.4583209526   -1.1602568447
O       -1.1274395130    0.7024054100   -1.6043906039
Cl      -7.3010481511    1.2098790638    4.6877787231
H       -2.5748347797    0.9683264861    3.4697472682
H       -5.3909424909    0.1284958752    0.3206155886
H       -4.4496262625    1.3308630445    5.0345346846
H       -7.2535814916    0.5035583616    1.9041733162
H       -2.9304432548    0.6459110500   -0.1827619503
H       -0.1317639170   -1.8762350219    0.2372135377
H       -1.2939913105    1.9230886629   -3.2692490307
H       -0.7284134851    0.2687172369   -3.5981184650
H        0.3663349968    1.4496752988   -2.8352066923
24   

C       -1.9064543340   -1.5585772716    2.0808455575
C       -3.5779649104    1.0390692252    3.0225240159
C       -5.1808993591    0.2010525089    1.4263857924
C       -4.6077799288    1.2362321620    3.9500053860
C       -6.2077312958    0.3995250981    2.3573966549
C       -3.8562014732    0.5427831302    1.7410110205
C       -5.9319119161    0.9239248898    3.6246645257
C       -2.7725416628    0.2719534532    0.7684737499
C       -0.8528971596   -1.1059751856   -0.0954966543
C       -1.8775702890   -0.7419811384    0.9056471864
C       -0.5605136308    1.1794747148   -2.8450274786
N       -1.9046075084   -2.2349446126    3.0288238695
N       -0.4972881514   -0.5024191107   -1.2101592943
O       -1.0895768203    0.7193028697   -1.6015149509
Cl      -7.2150539886    1.1732663118    4.7825853484
H       -2.5558530659    1.2725824626    3.2994455388
H       -5.4141080335   -0.2211788505    0.4554373051
H       -4.3803653325    1.6287875552    4.9342088194
H       -7.2284536960    0.1405189899    2.1015272547
H       -2.9162741608    0.7251297579   -0.2013494609
H       -0.2861364688   -2.0050607969    0.1201218936
H       -1.1225778393    2.0538200725   -3.1848880588
H       -0.6364364095    0.3945626473   -3.6041590067
H        0.4907038141    1.4583237119   -2.7247649999
24   

C       -2.1254355907   -1.7787413745    1.9040758069
C       -3.6097717292    1.2638003124    2.9019943070
C       -5.1495685352   -0.0083291454    1.5500893830
C       -4.6310384709    1.5135369159    3.8265902645
C       -6.1683166690    0.2432857812    2.4769985064
C       -3.8589542731    0.5002980384    1.7545949253
C       -5.9190986348    1.0069414012    3.6225058924
C       -2.7809228899    0.2383431729    0.7674248840
C       -0.8697146772   -1.1465563297   -0.1158554509
C       -1.9584923745   -0.8398663736    0.8366322714
C       -0.4845339369    1.2011773941   -2.8020509616
N       -2.2379956495   -2.5588348206    2.7613363556
N       -0.4638321812   -0.5048650800   -1.1915558640
O       -1.0908869418    0.6869361758   -1.6165698304
Cl      -7.1914175882    1.3206554633    4.7767144017
H       -2.6165053382    1.6608555252    3.0790604967
H       -5.3598256740   -0.6059865169    0.6702101222
H       -4.4262995397    2.1025340108    4.7129397618
H       -7.1614643788   -0.1577130082    2.3118088085
H       -2.6925992294    0.9817209181   -0.0099485544
H       -0.3055667591   -2.0481227983    0.0962716895
H       -0.9863669638    2.1251765765   -3.1026189864
H       -0.5678608278    0.4728130079   -3.6145548650
H        0.5734455426    1.4155950309   -2.6221527089
24   

C       -2.3063127915   -1.9825937131    1.6969338619
C       -3.6717560101    1.4761754100    2.7343939415
C       -5.0763208709   -0.1945997034    1.7163771697
C       -4.6955009046    1.7836851424    3.6387567140
C       -6.0987420825    0.1147398755    2.6213241735
C       -3.8383306949    0.4617330580    1.7819738871
C       -5.9162889645    1.1028816961    3.5939845943
C       -2.7806753832    0.1955036753    0.7805720432
C       -0.8901396012   -1.1814814441   -0.1501973421
C       -2.0252426290   -0.9344989748    0.7637023620
C       -0.4536914598    1.2974081628   -2.7065791170
N       -2.5170805934   -2.8521920316    2.4422370840
N       -0.4522222500   -0.4806237192   -1.1750461364
O       -1.1127322812    0.6970022909   -1.5916067251
Cl      -7.1909645401    1.4861306180    4.7243301172
H       -2.7365068042    2.0225700858    2.7816066165
H       -5.2405969953   -0.9579875296    0.9639048972
H       -4.5464904522    2.5572024281    4.3830343305
H       -7.0433786384   -0.4140361710    2.5709426427
H       -2.4321760939    1.0721404368    0.2547345055
H       -0.3299632929   -2.0915039373    0.0344538262
H       -0.9050214261    2.2697443987   -2.9228689164
H       -0.5509421880    0.6571377018   -3.5885382177
H        0.6087553158    1.4428808866   -2.4870862507
24   

C       -2.4040600765   -2.0905856227    1.5690699121
C       -3.7329980711    1.6025720870    2.5981895350
C       -4.9901181546   -0.3179667533    1.8742243134
C       -4.7551948120    1.9314187750    3.4966941833
C       -6.0107875552    0.0125298091    2.7735570409
C       -3.8186970429    0.4536530014    1.7981605649
C       -5.9006007734    1.1364968828    3.5973309820
C       -2.7702458919    0.1739658063    0.8026811958
C       -0.9662605697   -1.2431528332   -0.2355170017
C       -2.0825399778   -0.9979280298    0.7024905639
C       -0.3866813428    1.3836338485   -2.6097750399
N       -2.6545763708   -2.9976029590    2.2551702164
N       -0.4946393793   -0.5007030145   -1.2152858695
O       -1.0914583737    0.7353605406   -1.5509487341
Cl      -7.1731995261    1.5466620690    4.7205338878
H       -2.8596606948    2.2416824255    2.5326980475
H       -5.1095469857   -1.1859581780    1.2351589376
H       -4.6640970365    2.8115980883    4.1223905039
H       -6.8989151701   -0.6057361783    2.8329388810
H       -2.3566163193    1.0568517062    0.3384448113
H       -0.4541783893   -2.1915739819   -0.1157119499
H       -0.7796694153    2.3943715571   -2.7507927910
H       -0.5100700614    0.8218868195   -3.5405840712
H        0.6798108418    1.4502099364   -2.3723444738
24   

C       -2.4674508146   -2.1954160997    1.4683325111
C       -3.8029001537    1.6722982844    2.4542647291
C       -4.9153170383   -0.4207628781    2.0429124787
C       -4.8094847292    2.0285668978    3.3595846592
C       -5.9198482165   -0.0618972187    2.9496683108
C       -3.8191535004    0.4288226513    1.8019796723
C       -5.8739384410    1.1625572348    3.6207861059
C       -2.7753754639    0.1255000407    0.8199558773
C       -1.0705511646   -1.3174800267   -0.3452193535
C       -2.1478895431   -1.0738024070    0.6391497175
C       -0.3382547123    1.4421320603   -2.5168283414
N       -2.7180203432   -3.1270498544    2.1207357781
N       -0.5806524835   -0.5442229268   -1.2919581982
O       -1.1077104418    0.7433207748   -1.5381559146
Cl      -7.1273944734    1.6073715404    4.7522886491
H       -2.9935140415    2.3694379442    2.2688555308
H       -5.0068950131   -1.3671526878    1.5225730284
H       -4.7687184076    2.9859252238    3.8658964438
H       -6.7475301771   -0.7374336878    3.1319732885
H       -2.3362517093    1.0043680280    0.3731552887
H       -0.6050008067   -2.2957187031   -0.2951831543
H       -0.6819265573    2.4779516184   -2.5867015915
H       -0.4523112129    0.9636083846   -3.4941418409
H        0.7209927158    1.4404095818   -2.2406451921
24   

C       -2.2733664605   -2.2025439243    1.9976956965
C       -3.9751266466    1.6758229378    2.9373678583
C       -4.7587528948   -0.4140081401    2.0437311949
C       -5.2721269425    1.9787935718    3.3673287034
C       -6.0545339101   -0.1074420640    2.4770082307
C       -3.6820258164    0.4639956177    2.2867020419
C       -6.3232989015    1.0877281487    3.1465555746
C       -2.3100903529    0.2317137599    1.8448447027
C       -0.2624556483   -1.0790282388    1.1797553131
C       -1.6589286615   -0.9563694792    1.6571434247
C        1.3756145724    2.0112716852    0.3903630243
N       -2.7484740140   -3.2341063852    2.2561536353
N        0.5913892757   -0.1690784589    0.7575975136
O        0.2365214642    1.1950064466    0.6634032702
Cl      -7.9409373357    1.4658743878    3.6846553188
H       -3.1855955841    2.3944256611    3.1264775777
H       -4.6279528272   -1.3376238852    1.4949520974
H       -5.4689823407    2.9142079299    3.8780469820
H       -6.8641901097   -0.8020090485    2.2851886938
H       -1.7247145885    1.1367213732    1.8119100668
H        0.1377036712   -2.0870049164    1.1664374908
H        1.0986008087    3.0670590796    0.4575108293
H        1.7503331952    1.8058982143   -0.6168537015
H        2.1712754354    1.8094512250    1.1146124769
24   

C       -2.2782473087   -2.2651928080    1.8152361557
C       -3.9961507299    1.7217360513    2.7601748937
C       -4.7500853089   -0.5027056508    2.2505015989
C       -5.2772663581    2.0542220093    3.2139077710
C       -6.0301121609   -0.1642024802    2.7075638848
C       -3.6928792103    0.4336197520    2.2785337927
C       -6.3060764146    1.1132685365    3.1958310734
C       -2.3293197772    0.1864521292    1.8271843570
C       -0.2975234645   -1.0806368717    1.0395930543
C       -1.6857161834   -0.9904576275    1.5528313242
C        1.4136252097    2.0354500632    0.5651798667
N       -2.7204051115   -3.3251764486    2.0102036871
N        0.5684313076   -0.1497928980    0.6924484286
O        0.2520346559    1.2256115240    0.7470298781
Cl      -7.9050728070    1.5279493693    3.7619991572
H       -3.2268161948    2.4849487246    2.7944499314
H       -4.6440549134   -1.5015433959    1.8547572794
H       -5.4786293362    3.0523360377    3.5851868554
H       -6.8237640088   -0.9017854540    2.6762843950
H       -1.7504789460    1.0933484441    1.7792779955
H        0.0892599291   -2.0874531789    0.9246239567
H        1.1607204915    3.0866404366    0.7295391353
H        1.7966597199    1.9175515616   -0.4528934364
H        2.1943840602    1.7459962085    1.2757319348
24   

C       -2.3531075518   -2.2647335528    1.4858520146
C       -4.0373094478    1.7617564697    2.5824471195
C       -4.7032566264   -0.5445049875    2.4588031237
C       -5.3148300068    2.1102322926    3.0331908118
C       -5.9805343166   -0.1874772029    2.9107331598
C       -3.6934809692    0.4284330712    2.2824798444
C       -6.2995221943    1.1386859865    3.2019287063
C       -2.3348400776    0.1771583629    1.8211768063
C       -0.3013077391   -1.0635512227    1.0022403975
C       -1.7116454066   -0.9874404719    1.4588991893
C        1.5224258821    2.0303930355    0.8201365344
N       -2.8188354751   -3.3327161974    1.4860262401
N        0.6189150649   -0.1357264999    0.8273663097
O        0.3667876142    1.2318322948    1.0732190296
Cl      -7.8947674851    1.5722319480    3.7645484941
H       -3.3050316012    2.5529699252    2.4669005900
H       -4.5754186167   -1.5965051103    2.2663380895
H       -5.5477909277    3.1451325525    3.2553622073
H       -6.7376020268   -0.9528107245    3.0376425344
H       -1.7596485112    1.0851745300    1.7755303823
H        0.0535902984   -2.0602179827    0.7627189039
H        1.2987468255    3.0801713975    1.0297289947
H        1.8242078126    1.9352481779   -0.2274408931
H        2.3499511683    1.7104344266    1.4608109582
24   

C       -2.4824315252   -2.1770123964    1.1737179349
C       -4.1145119086    1.7727755021    2.3875968729
C       -4.6148144859   -0.5605952122    2.6728124839
C       -5.3951953344    2.1051082342    2.8426738528
C       -5.8960279261   -0.2215621469    3.1261276650
C       -3.6926259620    0.4337010917    2.2776639051
C       -6.3001580228    1.1109808089    3.2127176504
C       -2.3392001839    0.1908555698    1.7946307267
C       -0.3269549190   -1.0677016181    0.9458628276
C       -1.7482016734   -0.9634153387    1.3553504108
C        1.5909216780    1.9578493953    1.1246256237
N       -3.0384635943   -3.1878695081    1.0122443582
N        0.6528320133   -0.1863931417    0.9572302228
O        0.4713230146    1.1292447485    1.4378700084
Cl      -7.8985450301    1.5254540318    3.7807561712
H       -3.4449635255    2.5788366260    2.1091855518
H       -4.3805184953   -1.6144635008    2.6784925774
H       -5.6934773914    3.1448636201    2.9102223857
H       -6.5851750348   -1.0040213106    3.4223098628
H       -1.7675646510    1.1008327875    1.7234543888
H       -0.0243050314   -2.0375573004    0.5660204651
H        1.3724280755    2.9936411501    1.3991610707
H        1.8072133767    1.9160568632    0.0523693675
H        2.4721226740    1.6219580846    1.6793717141
24   

C       -2.5851630649   -2.0890486542    1.0446095397
C       -4.2092353774    1.7544030925    2.2265763769
C       -4.5040965444   -0.5452241232    2.8624679702
C       -5.4922898615    2.0505570592    2.7008482531
C       -5.7877706103   -0.2447407835    3.3343405679
C       -3.6928330396    0.4471586397    2.2741271506
C       -6.2962752766    1.0529111296    3.2539990443
C       -2.3362554356    0.2226941760    1.7834328810
C       -0.3847235032   -1.0485564813    0.8207122456
C       -1.7901876614   -0.9211735942    1.2695007613
C        1.6517200198    1.8665403808    1.2812206006
N       -3.2022738712   -3.0590753940    0.8578700054
N        0.6266517057   -0.2076483613    0.8931183829
O        0.4974071228    1.0575501021    1.5080608322
Cl      -7.8975729018    1.4229352464    3.8441136595
H       -3.6148193784    2.5570986426    1.8048439147
H       -4.1562846861   -1.5617429734    2.9930656276
H       -5.8716250893    3.0640046536    2.6407236606
H       -6.3952589250   -1.0264625099    3.7755075846
H       -1.7675644893    1.1348667828    1.6972048653
H       -0.1291679424   -1.9936907269    0.3540923303
H        1.4715130002    2.8798859632    1.6507967117
H        1.8770967711    1.9170472344    0.2111774911
H        2.5134730297    1.4448293805    1.8071749727
24   

C       -2.6698374807   -1.9958177542    0.9641828496
C       -4.2958687930    1.7215020318    2.0808166371
C       -4.3911863389   -0.4900534415    3.0226822231
C       -5.5808264820    1.9845237309    2.5701835011
C       -5.6765062695   -0.2242303928    3.5098470598
C       -3.6882884040    0.4696779680    2.2700833705
C       -6.2858994498    1.0123745387    3.2836439821
C       -2.3200100562    0.2621683884    1.7899872250
C       -0.4412418759   -1.0100359742    0.6954830908
C       -1.8252607721   -0.8645447917    1.1978699391
C        1.7263651251    1.7660705354    1.3752795404
N       -3.3322246615   -2.9347074070    0.7742132922
N        0.5987059802   -0.2085598637    0.7974820828
O        0.5243351243    1.0080223299    1.5120145127
Cl      -7.8896797911    1.3411423548    3.8911885904
H       -3.7727176932    2.4994553666    1.5362182207
H       -3.9453210935   -1.4520755261    3.2474208577
H       -6.0387787022    2.9515319128    2.3977882787
H       -6.2063247897   -0.9827811235    4.0742405495
H       -1.7477577610    1.1739634674    1.7124391438
H       -0.2332494099   -1.9300185164    0.1601675934
H        1.5916778627    2.7560914119    1.8198398076
H        1.9821559471    1.8867327115    0.3177840957
H        2.5498681668    1.2570881047    1.8850997169
24   

C       -2.7297967899   -1.8867782521    0.8732233636
C       -4.3885224993    1.6604323758    1.9415810042
C       -4.2807531528   -0.4013307579    3.1789364435
C       -5.6734152052    1.8945708377    2.4461073956
C       -5.5657328588   -0.1653194468    3.6818464093
C       -3.6862883266    0.4921697844    2.2723346694
C       -6.2764934200    0.9813835583    3.3158177388
C       -2.3051512318    0.3077274377    1.7967008725
C       -0.4901256260   -0.9235331865    0.5594632274
C       -1.8518796346   -0.7833601709    1.1180459170
C        1.7860827765    1.6999696152    1.4585525069
N       -3.4216441327   -2.8015741440    0.6715640184
N        0.5703897020   -0.1542362718    0.6901616978
O        0.5421646923    1.0009168886    1.5035039032
Cl      -7.8801816658    1.2738441226    3.9418929694
H       -3.9396292941    2.3898000047    1.2767568922
H       -3.7454535110   -1.2906338579    3.4930593514
H       -6.2106492761    2.7926722031    2.1644973921
H       -6.0168816411   -0.8756367757    4.3648278600
H       -1.7306394704    1.2207950025    1.7483269235
H       -0.3215834353   -1.8069772049   -0.0465105272
H        1.6935884868    2.6532309927    1.9864267119
H        2.0738319395    1.8980111991    0.4211704072
H        2.5683810876    1.1035653080    1.9376437835
24   

C       -2.8007515651   -1.7605432342    0.7368121973
C       -4.4771095031    1.5474808648    1.8092121387
C       -4.1805235947   -0.2847690089    3.3438705214
C       -5.7661812444    1.7590964081    2.3131954088
C       -5.4695552608   -0.0712253549    3.8466369920
C       -3.6799458227    0.5031366708    2.2969097657
C       -6.2762087180    0.9490823983    3.3327784320
C       -2.2906528192    0.3347038069    1.8132430725
C       -0.5331916459   -0.8457501256    0.4518997625
C       -1.8815513458   -0.7065345451    1.0410199660
C        1.8450860944    1.6040868743    1.5528920930
N       -3.5273041117   -2.6331745365    0.4784787572
N        0.5530369725   -0.1231371566    0.6285445232
O        0.5696557563    0.9631381192    1.5321105930
Cl      -7.8850423408    1.2130135471    3.9583643689
H       -4.0986145324    2.1929966408    1.0246625028
H       -3.5673507156   -1.0755301192    3.7618141211
H       -6.3795911672    2.5581644115    1.9135693185
H       -5.8502375007   -0.7002745249    4.6427886506
H       -1.6935346176    1.2340959269    1.8462942186
H       -0.4017081467   -1.6836204628   -0.2239086126
H        1.7920101488    2.5130763243    2.1585645867
H        2.1512727190    1.8744250786    0.5373698233
H        2.5944103583    0.9335932161    1.9844235649
24   

C       -2.8983911110   -1.5265932240    0.4991226328
C       -4.5765784477    1.3523062458    1.6566587080
C       -4.0787118184   -0.1187921083    3.5019260073
C       -5.8830010028    1.5075973635    2.1355822765
C       -5.3860503516    0.0386792613    3.9777311876
C       -3.6613991638    0.5378197939    2.3353332071
C       -6.2994047401    0.8536988987    3.3002346726
C       -2.2727705683    0.3747913830    1.8349642537
C       -0.5455175690   -0.8084477790    0.4324797794
C       -1.9098598969   -0.6016636496    0.9640328724
C        1.9172203431    1.5270360259    1.5970664597
N       -3.6811728529   -2.2930060468    0.1041832789
N        0.5710460289   -0.1460656984    0.6519709399
O        0.6060066544    0.9684490907    1.5184884038
Cl      -7.9290791173    1.0498665012    3.8961268353
H       -4.2729829484    1.8633037600    0.7498517643
H       -3.3858110487   -0.7580646240    4.0374661302
H       -6.5840338829    2.1375932849    1.6006914413
H       -5.6999603649   -0.4761514896    4.8781975200
H       -1.5686880779    1.0980588999    2.2169089313
H       -0.4341521645   -1.6410668916   -0.2533972440
H        1.9124637035    2.3869559767    2.2726897607
H        2.2466321953    1.8568488309    0.6069364050
H        2.6223972515    0.7817972447    1.9778271114
24   

C       -2.9617242876   -1.2820609647    0.2518502917
C       -4.6671478920    1.1338421208    1.5434659054
C       -3.9880707729    0.0947509093    3.6117530476
C       -5.9770470001    1.2348933523    2.0267903834
C       -5.2996703285    0.1975075927    4.0909936978
C       -3.6519687322    0.5852748686    2.3401144060
C       -6.3043064609    0.7732336925    3.3060174124
C       -2.2745298067    0.4163310155    1.8226651801
C       -0.5624650022   -0.7619183702    0.4047593983
C       -1.9398718424   -0.4912049836    0.8676235329
C        1.9235935399    1.4811338399    1.6919006415
N       -3.7735513808   -1.9347661682   -0.2687797587
N        0.5676237499   -0.1470458519    0.6840991245
O        0.5932268313    0.9934843440    1.5177955178
Cl      -7.9385634369    0.9027620106    3.9075458136
H       -4.4371118591    1.4832550557    0.5430073845
H       -3.2279773831   -0.3690925883    4.2302273627
H       -6.7505359608    1.6688931512    1.4040288310
H       -5.5467608123   -0.1765792020    5.0776222003
H       -1.5030886204    0.8321808706    2.4539472226
H       -0.4555657308   -1.5887549623   -0.2887698048
H        1.9295531288    2.2803147956    2.4383401426
H        2.3044788393    1.8768113730    0.7455172959
H        2.5821479075    0.6757929466    2.0322972867
24   

C       -2.9913810824   -1.1586971016    0.0725226074
C       -4.7464152497    0.9702635483    1.4980091745
C       -3.9207629511    0.2964010866    3.6637401211
C       -6.0380596477    1.0758134792    2.0270536883
C       -5.2149283268    0.4044710779    4.1870411988
C       -3.6664225934    0.5959790239    2.3136018339
C       -6.2838756397    0.7979054640    3.3754527985
C       -2.3050202075    0.4131539902    1.7825601359
C       -0.5940808173   -0.6712500537    0.2888030428
C       -1.9741429113   -0.4198921491    0.7565050256
C        1.9152452677    1.3973874545    1.8036997553
N       -3.8007018442   -1.7625861007   -0.5076172468
N        0.5415176187   -0.0974002434    0.6275246014
O        0.5760623605    0.9736786547    1.5484881531
Cl      -7.8967573999    0.9304698162    4.0315196574
H       -4.5853401539    1.1829674702    0.4468705963
H       -3.1115263874   -0.0254906873    4.3094630761
H       -6.8607838924    1.3703145149    1.3859909134
H       -5.3981582498    0.1760275897    5.2304491166
H       -1.5242476690    0.7475863727    2.4493859589
H       -0.4890829087   -1.4429016115   -0.4659513493
H        1.9222981195    2.1334223509    2.6124663500
H        2.3414196233    1.8535320227    0.9050736281
H        2.5345266354    0.5441834228    2.0982085036
24   

C       -2.9770078313   -1.1003985417   -0.0854595782
C       -4.8122866903    0.7848953367    1.4792181653
C       -3.8572551228    0.4598170298    3.6730562081
C       -6.0806845713    0.9158679287    2.0567958167
C       -5.1291051523    0.5930521522    4.2427307781
C       -3.6781661000    0.5576892843    2.2793291669
C       -6.2513771918    0.8217255885    3.4411491343
C       -2.3295670035    0.3707284678    1.7380345428
C       -0.5976771683   -0.5712989308    0.1708038295
C       -1.9841849656   -0.3786066222    0.6501094653
C        1.8973582530    1.3232069941    1.9184099783
N       -3.7658206819   -1.6876141719   -0.7094421681
N        0.5316994377   -0.0182478400    0.5619062805
O        0.5583884935    0.9665885020    1.5746038925
Cl      -7.8364482886    0.9845970854    4.1555730888
H       -4.7214403504    0.8750057961    0.4027973619
H       -3.0072028326    0.2716766373    4.3191925800
H       -6.9439765462    1.0911397889    1.4253878645
H       -5.2526364953    0.5142255722    5.3165215670
H       -1.5479825279    0.6771300757    2.4163652156
H       -0.4794238099   -1.2764654629   -0.6446468324
H        1.8920655595    1.9806655518    2.7922738019
H        2.3714350307    1.8470590986    1.0829635054
H        2.4810267336    0.4278303700    2.1548718645
24   

C       -2.9449408482   -1.0331583897   -0.2517155525
C       -4.8735734912    0.5957926909    1.4801078541
C       -3.7998424452    0.6202071600    3.6427355037
C       -6.1162139456    0.7589141753    2.1041532356
C       -5.0468107459    0.7847389959    4.2568403677
C       -3.6901476515    0.5129796329    2.2400943754
C       -6.2157133043    0.8519723806    3.4947683228
C       -2.3529707718    0.3251781605    1.6844087405
C       -0.5895820928   -0.4549119386    0.0608407238
C       -1.9843552283   -0.3311422658    0.5425998709
C        1.8802080562    1.2422473071    2.0311867552
N       -3.7035759690   -1.6059803859   -0.9247571945
N        0.5306884189    0.0743582692    0.5082033224
O        0.5458479957    0.9566387227    1.6113772568
Cl      -7.7698861526    1.0537773651    4.2649681061
H       -4.8581509743    0.5605598317    0.3981764742
H       -2.9147756907    0.5652116282    4.2665487692
H       -7.0158803132    0.8176472280    1.5025467611
H       -5.1136484356    0.8583207159    5.3360366845
H       -1.5724625469    0.6215935513    2.3669353266
H       -0.4532317803   -1.0826774290   -0.8130138043
H        1.8602122993    1.8130701601    2.9637645052
H        2.3954347169    1.8304434304    1.2659096505
H        2.4338176442    0.3129312548    2.1991582547
24   

C       -2.9245093855   -0.9226932453   -0.4107199803
C       -4.9311168799    0.3851077073    1.5176712266
C       -3.7690450264    0.7738806212    3.5951830499
C       -6.1519238661    0.5749409843    2.1768507211
C       -4.9945814312    0.9637748662    4.2435003254
C       -3.7078099340    0.4632814722    2.2183410361
C       -6.1969250948    0.8611092862    3.5425146440
C       -2.3785682327    0.2853814995    1.6476461740
C       -0.5906080367   -0.3393186062   -0.0166854807
C       -1.9932225468   -0.2726569041    0.4582696633
C        1.8705499758    1.1283952344    2.1417819331
N       -3.6482214504   -1.4592601152   -1.1491901245
N        0.5255948500    0.1450491373    0.4893677428
O        0.5383804989    0.9072026716    1.6785427648
Cl      -7.7249406641    1.0949609882    4.3548305948
H       -4.9871869129    0.2043988783    0.4541072101
H       -2.8598849485    0.8604863319    4.1795255966
H       -7.0789631684    0.5049957999    1.6195272569
H       -5.0175193883    1.1920368265    5.3027218145
H       -1.5997073553    0.5790213271    2.3313462287
H       -0.4410413344   -0.8782093788   -0.9460210775
H        1.8453663035    1.6131668306    3.1217502086
H        2.4085623526    1.7732967649    1.4405434074
H        2.4045653356    0.1772255819    2.2331876429
24   

C       -2.9225421200   -0.6403590215   -0.5814978938
C       -4.9507884510    0.1259394048    1.6127475640
C       -3.7594659596    0.9528811709    3.5348599623
C       -6.1598532500    0.3241799735    2.2912327611
C       -4.9729374605    1.1472143067    4.2037543279
C       -3.7113908060    0.4357510970    2.2202635520
C       -6.1845005477    0.8346828834    3.5889719280
C       -2.3866524486    0.2816717306    1.6344289465
C       -0.5832636611   -0.2680835601   -0.0392200202
C       -1.9963171791   -0.1813317332    0.4059734288
C        1.9221692472    0.8717543210    2.2748415638
N       -3.6274672585   -1.0267288954   -1.4248258623
N        0.5473854749    0.0612087641    0.5535442402
O        0.5830994155    0.6177296609    1.8510141067
Cl      -7.6984786004    1.0773795803    4.4246158360
H       -5.0484381239   -0.2715584783    0.6155931695
H       -2.8449212917    1.2118558430    4.0565143712
H       -7.0952968942    0.0778150193    1.8020875677
H       -4.9784041107    1.5451013418    5.2118465934
H       -1.6128979456    0.5903869777    2.3151608843
H       -0.4367194134   -0.6737073082   -1.0345013776
H        1.9165991461    1.2860413357    3.2869432957
H        2.4007723623    1.5893425584    1.6014029736
H        2.5003810533   -0.0573935875    2.2763654603
