24   

C       -1.2781324565   -1.2659338286    2.3558990972
C       -3.7704654946    0.3022870474    3.2429989676
C       -4.9904586694    0.8868078555    1.2460867111
C       -4.9035449274    0.6000849787    4.0100537164
C       -6.1162768379    1.1835530799    2.0224738531
C       -3.7937011450    0.4228059300    1.8364152359
C       -6.0854771894    1.0382899639    3.4100905273
C       -2.6854717471    0.1432730852    0.9320187222
C       -0.4559275923   -0.7175782589    0.1276010111
C       -1.5263417131   -0.5549163862    1.1402471041
C       -1.0324565184    0.8666823685   -3.0389175684
N       -1.0334141389   -1.8567798364    3.3295639024
N       -0.3204904425   -0.2232678930   -1.0864967796
O       -1.2756950163    0.6523588664   -1.6485701349
Cl      -7.4929706989    1.4058280565    4.3761370707
H       -2.8886312771    0.0053567560    3.7917384275
H       -5.0602633153    1.0115532615    0.1713311591
H       -4.8640940527    0.4952629180    5.0881816162
H       -7.0266495052    1.5292510012    1.5467673264
H       -2.8809220187    0.4903962149   -0.0686529343
H        0.3705343299   -1.3538499245    0.4251931363
H       -1.8512179220    1.4481157714   -3.4719861854
H       -0.9637280888   -0.0906587684   -3.5652390706
H       -0.0962266130    1.4162942898   -3.1748882415
24   

C       -1.4370492683   -1.3674272140    2.3135918340
C       -3.6799366914    0.5025454276    3.2273299440
C       -5.0665872739    0.7147059799    1.2621347233
C       -4.7930806685    0.7732107450    4.0322174940
C       -6.1729451231    0.9859039887    2.0754933776
C       -3.7981109251    0.4577746500    1.8240668906
C       -6.0477932798    1.0141371835    3.4665686755
C       -2.7027396075    0.1672812213    0.9032968785
C       -0.5344303884   -0.8381991936    0.1035015255
C       -1.6012822411   -0.6175782986    1.1064087115
C       -0.9013562736    0.9824945319   -2.9645165202
N       -1.2691790127   -1.9827287661    3.2881998291
N       -0.3377576381   -0.3005034643   -1.0828516576
O       -1.1973902176    0.6953246346   -1.5976867943
Cl      -7.4312338643    1.3494847043    4.4780147864
H       -2.7288252174    0.3545973298    3.7228717767
H       -5.2027363437    0.6943093795    0.1867023164
H       -4.6827224563    0.8004717688    5.1101123194
H       -7.1416147903    1.1739988534    1.6273369196
H       -2.9001453408    0.5056847332   -0.1014660681
H        0.2248735290   -1.5604325200    0.3830328010
H       -1.6611155182    1.6539547152   -3.3742042942
H       -0.8919514112    0.0601597262   -3.5540328740
H        0.0776619701    1.4647859015   -3.0420554246
24   

C       -1.5991345401   -1.4130346075    2.2555270051
C       -3.6268553561    0.6896167335    3.1728114903
C       -5.1322617909    0.5678907268    1.2889344638
C       -4.7156457126    0.9246403892    4.0206967542
C       -6.2155478708    0.8044205894    2.1435723972
C       -3.8174139897    0.5104993856    1.7909041406
C       -6.0178716808    0.9845268122    3.5157023629
C       -2.7281872320    0.2210183677    0.8545898188
C       -0.6435337209   -0.9400535615    0.0486614933
C       -1.6954988140   -0.6509689387    1.0481759948
C       -0.7882331200    1.0453811396   -2.9354862149
N       -1.4895801762   -2.0363187436    3.2332360423
N       -0.3925520791   -0.3866134599   -1.1196732864
O       -1.1579388596    0.6991856000   -1.6006932085
Cl      -7.3721615081    1.2766799933    4.5786807538
H       -2.6321802185    0.6612553278    3.6027768905
H       -5.3177565355    0.4207910217    0.2309040656
H       -4.5506788721    1.0609520829    5.0831813877
H       -7.2220871863    0.8447636183    1.7438791053
H       -2.9196164835    0.5711510177   -0.1482333734
H        0.0483628689   -1.7316675051    0.3148027111
H       -1.4819898137    1.7935388451   -3.3290292425
H       -0.8201339127    0.1616271761   -3.5806521677
H        0.2245825666    1.4591383536   -2.9480120515
24   

C       -1.7518900214   -1.4519594797    2.1933340015
C       -3.5937309571    0.8741192460    3.1105012579
C       -5.1726508497    0.4069260850    1.3454396928
C       -4.6544892648    1.0786814574    4.0006077511
C       -6.2292762763    0.6134742134    2.2405873555
C       -3.8387049712    0.5525955059    1.7658020581
C       -5.9805551369    0.9541264783    3.5741055388
C       -2.7520809865    0.2687134559    0.8132435211
C       -0.7571611063   -1.0257607733   -0.0111798351
C       -1.7896336607   -0.6794248021    0.9890873290
C       -0.6707242753    1.1059914117   -2.8953727203
N       -1.6921775835   -2.0864184739    3.1680859281
N       -0.4551408577   -0.4583211375   -1.1602569881
O       -1.1274398523    0.7024050635   -1.6043909235
Cl      -7.3010481922    1.2098787383    4.6877787648
H       -2.5748348046    0.9683262531    3.4697473489
H       -5.3909424926    0.1284959520    0.3206155680
H       -4.4496263084    1.3308627078    5.0345347662
H       -7.2535814879    0.5035582720    1.9041732968
H       -2.9304433599    0.6459108243   -0.1827620154
H       -0.1317638008   -1.8762349195    0.2372135988
H       -1.2939912689    1.9230884761   -3.2692492656
H       -0.7284134118    0.2687170621   -3.5981187273
H        0.3663349411    1.4496750359   -2.8352066297
24   

C       -1.9064542386   -1.5585772120    2.0808456005
C       -3.5779648929    1.0390690200    3.0225240944
C       -5.1808993591    0.2010525089    1.4263857924
C       -4.6077799040    1.2362318897    3.9500054873
C       -6.2077312920    0.3995250367    2.3573966714
C       -3.8562014732    0.5427831302    1.7410110205
C       -5.9319119001    0.9239247020    3.6246645905
C       -2.7725416628    0.2719534532    0.7684737499
C       -0.8528972513   -1.1059752404   -0.0954967194
C       -1.8775702890   -0.7419811384    0.9056471864
C       -0.5605137993    1.1794746904   -2.8450275434
N       -1.9046073288   -2.2349445194    3.0288239366
N       -0.4972883552   -0.5024192194   -1.2101594252
O       -1.0895770027    0.7193027884   -1.6015150413
Cl      -7.2150539698    1.1732660615    4.7825854273
H       -2.5558530418    1.2725821869    3.2994456472
H       -5.4141080454   -0.2211787564    0.4554372671
H       -4.3803652929    1.6287871692    4.9342089635
H       -7.2284537005    0.1405189903    2.1015272430
H       -2.9162743536    0.7251294224   -0.2013495892
H       -0.2861365351   -2.0050608365    0.1201218183
H       -1.1225780123    2.0538200557   -3.1848881021
H       -0.6364365699    0.3945626479   -3.6041590964
H        0.4907036446    1.4583236888   -2.7247650473
24   

C       -2.1254355809   -1.7787413738    1.9040758084
C       -3.6097717266    1.2638003178    2.9019942980
C       -5.1495685352   -0.0083291454    1.5500893830
C       -4.6310384643    1.5135369297    3.8265902545
C       -6.1683166602    0.2432857617    2.4769985213
C       -3.8589542731    0.5002980384    1.7545949253
C       -5.9190986238    1.0069413943    3.6225059008
C       -2.7809228899    0.2383431729    0.7674248840
C       -0.8697146794   -1.1465563126   -0.1158554559
C       -1.9584923745   -0.8398663736    0.8366322714
C       -0.4845338232    1.2011774751   -2.8020509012
N       -2.2379956221   -2.5588348137    2.7613363643
N       -0.4638321801   -0.5048650574   -1.1915558659
O       -1.0908869202    0.6869362120   -1.6165698326
Cl      -7.1914175707    1.3206554572    4.7767144168
H       -2.6165053335    1.6608555252    3.0790604773
H       -5.3598256836   -0.6059864999    0.6702101129
H       -4.4262995243    2.1025340490    4.7129397339
H       -7.1614643634   -0.1577130501    2.3118088341
H       -2.6925992185    0.9817209305   -0.0099485421
H       -0.3055667667   -2.0481227839    0.0962716750
H       -0.9863667560    2.1251767192   -3.1026189002
H       -0.5678607077    0.4728131485   -3.6145548587
H        0.5734456607    1.4155950171   -2.6221525749
24   

C       -2.3063129276   -1.9825938077    1.6969337158
C       -3.6717561180    1.4761756022    2.7343937593
C       -5.0763208709   -0.1945997034    1.7163771697
C       -4.6955010587    1.7836854327    3.6387564449
C       -6.0987421394    0.1147399841    2.6213240762
C       -3.8383306949    0.4617330580    1.7819738871
C       -5.9162890889    1.1028819341    3.5939843799
C       -2.7806753832    0.1955036753    0.7805720432
C       -0.8901395321   -1.1814814024   -0.1501972625
C       -2.0252426290   -0.9344989748    0.7637023620
C       -0.4536910378    1.2974084320   -2.7065787676
N       -2.5170808450   -2.8521922061    2.4422368102
N       -0.4522220090   -0.4806235442   -1.1750458935
O       -1.1127318947    0.6970025881   -1.5916063811
Cl      -7.1909647130    1.4861309603    4.7243298144
H       -2.7365069404    2.0225703303    2.7816063855
H       -5.2405969575   -0.9579876134    0.9639049738
H       -4.5464906686    2.5572028424    4.3830339463
H       -7.0433786866   -0.4140360791    2.5709425623
H       -2.4321758217    1.0721404916    0.2547347796
H       -0.3299633455   -2.0915039927    0.0344538124
H       -0.9050209059    2.2697447235   -2.9228685218
H       -0.5509418544    0.6571380146   -3.5885378912
H        0.6087557574    1.4428810363   -2.4870859161
24   

C       -2.4040601500   -2.0905856551    1.5690698436
C       -3.7329981823    1.6025721931    2.5981893879
C       -4.9901181546   -0.3179667533    1.8742243134
C       -4.7551949432    1.9314188911    3.4966940093
C       -6.0107875826    0.0125298154    2.7735570004
C       -3.8186970429    0.4536530014    1.7981605649
C       -5.9006008578    1.1364969391    3.5973308739
C       -2.7702458919    0.1739658063    0.8026811958
C       -0.9662605154   -1.2431528268   -0.2355169367
C       -2.0825399778   -0.9979280298    0.7024905639
C       -0.3866810579    1.3836338208   -2.6097749529
N       -2.6545764789   -2.9976030128    2.2551701076
N       -0.4946391751   -0.5007029561   -1.2152856916
O       -1.0914580425    0.7353606678   -1.5509485197
Cl      -7.1731996317    1.5466621274    4.7205337531
H       -2.8596608529    2.2416825865    2.5326978333
H       -5.1095469645   -1.1859582161    1.2351589855
H       -4.6640972134    2.8115982604    4.1223902544
H       -6.8989151696   -0.6057362117    2.8329388537
H       -2.3566161268    1.0568516954    0.3384449629
H       -0.4541784277   -2.1915740321   -0.1157119502
H       -0.7796690736    2.3943715415   -2.7507927754
H       -0.5100698708    0.8218867018   -3.5405839190
H        0.6798111471    1.4502098656   -2.3723444740
24   

C       -2.4674508865   -2.1954161181    1.4683324598
C       -3.8029002339    1.6722983484    2.4542646130
C       -4.9153170383   -0.4207628781    2.0429124787
C       -4.8094848207    2.0285669813    3.3595845208
C       -5.9198482379   -0.0618971900    2.9496682813
C       -3.8191535004    0.4288226513    1.8019796723
C       -5.8739384972    1.1625572963    3.6207860209
C       -2.7753754639    0.1255000407    0.8199558773
C       -1.0705511408   -1.3174800230   -0.3452193270
C       -2.1478895431   -1.0738024070    0.6391497175
C       -0.3382546002    1.4421320541   -2.5168283062
N       -2.7180204693   -3.1270498669    2.1207357132
N       -0.5806523916   -0.5442229033   -1.2919581191
O       -1.1077103168    0.7433208123   -1.5381558360
Cl      -7.1273945324    1.6073716211    4.7522885543
H       -2.9935141530    2.3694380318    2.2688553749
H       -5.0068950043   -1.3671527082    1.5225730653
H       -4.7687185314    2.9859253388    3.8658962492
H       -6.7475301920   -0.7374336605    3.1319732831
H       -2.3362515664    1.0043680176    0.3731554068
H       -0.6050008376   -2.2957187261   -0.2951831718
H       -0.6819264133    2.4779516223   -2.5867015684
H       -0.4523111460    0.9636083622   -3.4941417927
H        0.7209928372    1.4404095491   -2.2406451933
24   

C       -2.2733665446   -2.2025439698    1.9976953744
C       -3.9751266781    1.6758230096    2.9373677245
C       -4.7587528948   -0.4140081401    2.0437311949
C       -5.2721269812    1.9787936704    3.3673285326
C       -6.0545339246   -0.1074420179    2.4770081739
C       -3.6820258164    0.4639956177    2.2867020419
C       -6.3232989315    1.0877282347    3.1465554443
C       -2.3100903529    0.2317137599    1.8448447027
C       -0.2624555509   -1.0790281838    1.1797555784
C       -1.6589286615   -0.9563694792    1.6571434247
C        1.3756147946    2.0112717470    0.3903633652
N       -2.7484741483   -3.2341064715    2.2561530572
N        0.5913894698   -0.1690783642    0.7575980492
O        0.2365216993    1.1950065571    0.6634038216
Cl      -7.9409373771    1.4658745149    3.6846551315
H       -3.1855956319    2.3944257621    3.1264773945
H       -4.6279528622   -1.3376239160    1.4949521458
H       -5.4689823993    2.9142080606    3.8780467496
H       -6.8641901308   -0.8020090002    2.2851886590
H       -1.7247145570    1.1367213552    1.8119101983
H        0.1377037684   -2.0870048594    1.1664377151
H        1.0986010805    3.0670591582    0.4575111279
H        1.7503332609    1.8058981902   -0.6168534000
H        2.1712757585    1.8094513168    1.1146127165
24   

C       -2.2782473820   -2.2651928141    1.8152359580
C       -3.9961507372    1.7217360877    2.7601747908
C       -4.7500853089   -0.5027056508    2.2505015989
C       -5.2772663693    2.0542220790    3.2139076206
C       -6.0301121667   -0.1642024420    2.7075638437
C       -3.6928792103    0.4336197520    2.2785337927
C       -6.3060764241    1.1132686049    3.1958309582
C       -2.3293197772    0.1864521292    1.8271843570
C       -0.2975234368   -1.0806368987    1.0395931304
C       -1.6857161834   -0.9904576275    1.5528313242
C        1.4136253320    2.0354499680    0.5651798411
N       -2.7204052107   -3.3251764726    2.0102033306
N        0.5684313897   -0.1497929508    0.6924485874
O        0.2520347844    1.2256114753    0.7470300850
Cl      -7.9050728201    1.5279494757    3.7619989982
H       -3.2268161996    2.4849487630    2.7944497839
H       -4.6440549339   -1.5015434187    1.8547573381
H       -5.4786293541    3.0523361293    3.5851866441
H       -6.8237640211   -0.9017854093    2.6762843730
H       -1.7504789132    1.0933484278    1.7792780609
H        0.0892599120   -2.0874532161    0.9246239698
H        1.1607206506    3.0866403654    0.7295390040
H        1.7966597309    1.9175513451   -0.4528934895
H        2.1943842537    1.7459961743    1.2757318552
24   

C       -2.3531075448   -2.2647335565    1.4858520411
C       -4.0373094518    1.7617564660    2.5824471208
C       -4.7032566264   -0.5445049875    2.4588031237
C       -5.3148300210    2.1102322847    3.0331907916
C       -5.9805343227   -0.1874772085    2.9107331313
C       -3.6934809692    0.4284330712    2.2824798444
C       -6.2995222084    1.1386859768    3.2019286752
C       -2.3348400776    0.1771583629    1.8211768063
C       -0.3013077687   -1.0635512464    1.0022403064
C       -1.7116454066   -0.9874404719    1.4588991893
C        1.5224260807    2.0303928619    0.8201366542
N       -2.8188354411   -3.3327162128    1.4860262546
N        0.6189150648   -0.1357265599    0.8273661990
O        0.3667877212    1.2318322232    1.0732190668
Cl      -7.8947675023    1.5722319185    3.7645484708
H       -3.3050315974    2.5529699173    2.4669006269
H       -4.5754185990   -1.5965051144    2.2663381233
H       -5.5477909415    3.1451325446    3.2553621816
H       -6.7376020216   -0.9528107389    3.0376425000
H       -1.7596485167    1.0851745343    1.7755303005
H        0.0535902194   -2.0602180030    0.7627187289
H        1.2987471098    3.0801712459    1.0297290948
H        1.8242080838    1.9352479672   -0.2274407495
H        2.3499512934    1.7104341721    1.4608111335
24   

C       -2.4824314995   -2.1770124200    1.1737179930
C       -4.1145118861    1.7727755059    2.3875969910
C       -4.6148144859   -0.5605952122    2.6728124839
C       -5.3951953080    2.1051082243    2.8426740169
C       -5.8960279076   -0.2215621629    3.1261277253
C       -3.6926259620    0.4337010917    2.2776639051
C       -6.3001579973    1.1109807872    3.2127177790
C       -2.3392001839    0.1908555698    1.7946307267
C       -0.3269549280   -1.0677015786    0.9458627995
C       -1.7482016734   -0.9634153387    1.3553504108
C        1.5909215555    1.9578495028    1.1246258299
N       -3.0384635661   -3.1878695368    1.0122444405
N        0.6528320093   -0.1863931059    0.9572302985
O        0.4713230321    1.1292447053    1.4378703206
Cl      -7.8985449892    1.5254539887    3.7807563618
H       -3.4449634945    2.5788366410    2.1091857203
H       -4.3805185062   -1.6144635025    2.6784925519
H       -5.6934773653    3.1448636058    2.9102226228
H       -6.5851750046   -1.0040213372    3.4223099214
H       -1.7675646601    1.1008327914    1.7234543739
H       -0.0243050471   -2.0375572240    0.5660203435
H        1.3724279427    2.9936411865    1.3991615475
H        1.8072129805    1.9160572048    0.0523695098
H        2.4721227167    1.6219581458    1.6793716309
24   

C       -2.5851630242   -2.0890486989    1.0446096343
C       -4.2092353188    1.7544031256    2.2265765458
C       -4.5040965444   -0.5452241232    2.8624679702
C       -5.4922897674    2.0505571104    2.7008485103
C       -5.7877705712   -0.2447407605    3.3343406731
C       -3.6928330396    0.4471586397    2.2741271506
C       -6.2962751917    1.0529111780    3.2539992765
C       -2.3362554356    0.2226941760    1.7834328810
C       -0.3847235025   -1.0485564729    0.8207122314
C       -1.7901876614   -0.9211735942    1.2695007613
C        1.6517199522    1.8665404555    1.2812205398
N       -3.2022738034   -3.0590754664    0.8578701487
N        0.6266516943   -0.2076483347    0.8931183325
O        0.4974070885    1.0575501318    1.5080607703
Cl      -7.8975727581    1.4229353292    3.8441140359
H       -3.6148193021    2.5570986951    1.8048441471
H       -4.1562847354   -1.5617429963    2.9930655699
H       -5.8716249621    3.0640047238    2.6407240163
H       -6.3952588874   -1.0264624833    3.7755076957
H       -1.7675645085    1.1348667876    1.6972047985
H       -0.1291679186   -1.9936907450    0.3540923805
H        1.4715128927    2.8798860186    1.6507966866
H        1.8770966815    1.9170473457    0.2111774275
H        2.5134729861    1.4448294741    1.8071748873
24   

C       -2.6698374014   -1.9958178436    0.9641829982
C       -4.2958687020    1.7215021053    2.0808168400
C       -4.3911863389   -0.4900534415    3.0226822231
C       -5.5808263541    1.9845238351    2.5701837808
C       -5.6765062240   -0.2242303591    3.5098471523
C       -3.6882884040    0.4696779680    2.2700833705
C       -6.2858993479    1.0123746202    3.2836442023
C       -2.3200100562    0.2621683884    1.7899872250
C       -0.4412418900   -1.0100359009    0.6954830092
C       -1.8252607721   -0.8645447917    1.1978699391
C        1.7263651684    1.7660706514    1.3752793522
N       -3.3322244905   -2.9347075800    0.7742135342
N        0.5987058913   -0.2085596549    0.7974817603
O        0.5243349800    1.0080226775    1.5120139538
Cl      -7.8896796410    1.3411424713    3.8911889136
H       -3.7727175662    2.4994554717    1.5362185060
H       -3.9453211342   -1.4520755594    3.2474207914
H       -6.0387785193    2.9515320607    2.3977886649
H       -6.2063247452   -0.9827811003    4.0742406257
H       -1.7477578145    1.1739634864    1.7124390229
H       -0.2332493598   -1.9300185231    0.1601676758
H        1.5916778932    2.7560916309    1.8198393860
H        1.9821564624    1.8867325970    0.3177839959
H        2.5498679042    1.2570881729    1.8850999734
24   

C       -2.7297967620   -1.8867782876    0.8732234220
C       -4.3885223947    1.6604324921    1.9415811896
C       -4.2807531528   -0.4013307579    3.1789364435
C       -5.6734150761    1.8945709976    2.4461076109
C       -5.5657328434   -0.1653194031    3.6818464406
C       -3.6862883266    0.4921697844    2.2723346694
C       -6.2764933508    0.9813836660    3.3158178545
C       -2.3051512318    0.3077274377    1.7967008725
C       -0.4901256232   -0.9235331799    0.5594632274
C       -1.8518796346   -0.7833601709    1.1180459170
C        1.7860827080    1.6999697821    1.4585522942
N       -3.4216440961   -2.8015742012    0.6715641425
N        0.5703896520   -0.1542361615    0.6901615580
O        0.5421645799    1.0009171300    1.5035035834
Cl      -7.8801816046    1.2738442447    3.9418930596
H       -3.9396291401    2.3898001643    1.2767571584
H       -3.7454535540   -1.2906339010    3.4930593024
H       -6.2106490814    2.7926724303    2.1644976951
H       -6.0168816628   -0.8756367525    4.3648278448
H       -1.7306395347    1.2207950303    1.7483267311
H       -0.3215833895   -1.8069772895   -0.0465103873
H        1.6935884212    2.6532311799    1.9864264662
H        2.0738319791    1.8980113191    0.4211702152
H        2.5683809289    1.1035654340    1.9376436687
24   

C       -2.8007514765   -1.7605433569    0.7368123582
C       -4.4771093675    1.5474810800    1.8092123738
C       -4.1805235947   -0.2847690089    3.3438705214
C       -5.7661810410    1.7590967428    2.3131957574
C       -5.4695552134   -0.0712252622    3.8466370805
C       -3.6799458227    0.5031366708    2.2969097657
C       -6.2762085676    0.9490826651    3.3327786975
C       -2.2906528192    0.3347038069    1.8132430725
C       -0.5331916630   -0.8457500541    0.4518996907
C       -1.8815513458   -0.7065345451    1.0410199660
C        1.8450861160    1.6040869608    1.5528919529
N       -3.5273039119   -2.6331747832    0.4784790224
N        0.5530368743   -0.1231369049    0.6285442287
O        0.5696556138    0.9631385426    1.5321100965
Cl      -7.8850421177    1.2130139566    3.9583647625
H       -4.0986143437    2.1929969315    1.0246628237
H       -3.5673507865   -1.0755302307    3.7618140143
H       -6.3795908663    2.5581649019    1.9135698257
H       -5.8502374988   -0.7002744986    4.6427886651
H       -1.6935347211    1.2340960043    1.8462939167
H       -0.4017080763   -1.6836205087   -0.2239085238
H        1.7920102770    2.5130763470    2.1585645522
H        2.1512730298    1.8744252100    0.5373697824
H        2.5944101148    0.9335930555    1.9844235025
24   

C       -2.8983910790   -1.5265933308    0.4991227725
C       -4.5765784080    1.3523063636    1.6566587965
C       -4.0787118184   -0.1187921083    3.5019260073
C       -5.8830009370    1.5075975459    2.1355824140
C       -5.3860503233    0.0386793268    3.9777312419
C       -3.6613991638    0.5378197939    2.3353332071
C       -6.2994046830    0.8536990469    3.3002347896
C       -2.2727705683    0.3747913830    1.8349642537
C       -0.5455176152   -0.8084476258    0.4324796029
C       -1.9098598969   -0.6016636496    0.9640328724
C        1.9172203511    1.5270360072    1.5970664817
N       -3.6811727906   -2.2930062396    0.1041835240
N        0.5710459870   -0.1460655645    0.6519707884
O        0.6060067006    0.9684489664    1.5184885752
Cl      -7.9290790311    1.0498667154    3.8961270101
H       -4.2729829039    1.8633039300    0.7498518846
H       -3.3858110646   -0.7580646691    4.0374660971
H       -6.5840337798    2.1375935500    1.6006916290
H       -5.6999603282   -0.4761514230    4.8781975779
H       -1.5686881685    1.0980591636    2.2169085989
H       -0.4341522393   -1.6410666023   -0.2533975842
H        1.9124637057    2.3869559922    2.2726897362
H        2.2466320845    1.8568487962    0.6069363818
H        2.6223973523    0.7817973015    1.9778271108
24   

C       -2.9617243202   -1.2820607446    0.2518500621
C       -4.6671479478    1.1338418704    1.5434658038
C       -3.9880707729    0.0947509093    3.6117530476
C       -5.9770470770    1.2348930154    2.0267902264
C       -5.2996703618    0.1975074818    4.0909936349
C       -3.6519687322    0.5852748686    2.3401144060
C       -6.3043065264    0.7732334327    3.3060172810
C       -2.2745298067    0.4163310155    1.8226651801
C       -0.5624649849   -0.7619185433    0.4047595563
C       -1.9398718424   -0.4912049836    0.8676235329
C        1.9235937465    1.4811333426    1.6919010117
N       -3.7735514625   -1.9347657501   -0.2687801605
N        0.5676238526   -0.1470463258    0.6840996035
O        0.5932270548    0.9934836727    1.5177962630
Cl      -7.9385635344    0.9027616337    3.9075456138
H       -4.4371119326    1.4832547038    0.5430072461
H       -3.2279773636   -0.3690924901    4.2302274124
H       -6.7505360567    1.6688926766    1.4040286025
H       -5.5467608478   -0.1765792809    5.0776221472
H       -1.5030886026    0.8321805112    2.4539474342
H       -0.4555657720   -1.5887549992   -0.2887698186
H        1.9295534237    2.2803143686    2.4383404385
H        2.3044787551    1.8768108411    0.7455175341
H        2.5821482872    0.6757925482    2.0322975578
24   

C       -2.9913810748   -1.1586969863    0.0725224701
C       -4.7464152932    0.9702634130    1.4980091630
C       -3.9207629511    0.2964010866    3.6637401211
C       -6.0380596860    1.0758133443    2.0270536967
C       -5.2149283227    0.4044710442    4.1870412141
C       -3.6664225934    0.5959790239    2.3136018339
C       -6.2838756558    0.7979053856    3.3754528218
C       -2.3050202075    0.4131539902    1.7825601359
C       -0.5940808075   -0.6712501162    0.2888030880
C       -1.9741429113   -0.4198921491    0.7565050256
C        1.9152453957    1.3973873552    1.8036996464
N       -3.8007017853   -1.7625859115   -0.5076175324
N        0.5415176726   -0.0974004662    0.6275247714
O        0.5760624867    0.9736783289    1.5484884337
Cl      -7.8967574112    0.9304697396    4.0315197029
H       -4.5853402341    1.1829672877    0.4468705695
H       -3.1115263698   -0.0254906516    4.3094630719
H       -6.8607839443    1.3703143474    1.3859909256
H       -5.3981582190    0.1760275622    5.2304491374
H       -1.5242476481    0.7475861426    2.4493860504
H       -0.4890829235   -1.4429015729   -0.4659514085
H        1.9222983405    2.1334223627    2.6124661394
H        2.3414194686    1.8535318479    0.9050733465
H        2.5345269577    0.5441834519    2.0982083552
24   

C       -2.9770078145   -1.1003984606   -0.0854596815
C       -4.8122867278    0.7848951525    1.4792181610
C       -3.8572551228    0.4598170298    3.6730562081
C       -6.0806846156    0.9158676750    2.0567958091
C       -5.1291051572    0.5930521100    4.2427307810
C       -3.6781661000    0.5576892843    2.2793291669
C       -6.2513772175    0.8217254268    3.4411491335
C       -2.3295670035    0.3707284678    1.7380345428
C       -0.5976771536   -0.5712990194    0.1708039111
C       -1.9841849656   -0.3786066222    0.6501094653
C        1.8973582278    1.3232071950    1.9184098741
N       -3.7658206392   -1.6876140361   -0.7094423564
N        0.5316994603   -0.0182479936    0.5619064362
O        0.5583884926    0.9665883884    1.5746040150
Cl      -7.8364483174    0.9845968932    4.1555730883
H       -4.7214404193    0.8750055622    0.4027973512
H       -3.0072028212    0.2716767207    4.3191925893
H       -6.9439766068    1.0911394139    1.4253878466
H       -5.2526364850    0.5142256037    5.3165215772
H       -1.5479825228    0.6771299232    2.4163652777
H       -0.4794237985   -1.2764655335   -0.6446467697
H        1.8920655199    1.9806658220    2.7922736473
H        2.3714347585    1.8470593469    1.0829632923
H        2.4810269482    0.4278307199    2.1548717355
24   

C       -2.9449408300   -1.0331582891   -0.2517156643
C       -4.8735735093    0.5957925327    1.4801078659
C       -3.7998424452    0.6202071600    3.6427355037
C       -6.1162139677    0.7589139456    2.1041532421
C       -5.0468107587    0.7847389498    4.2568403625
C       -3.6901476515    0.5129796329    2.2400943754
C       -6.2157133258    0.8519722242    3.4947683220
C       -2.3529707718    0.3251781605    1.6844087405
C       -0.5895820743   -0.4549119774    0.0608407740
C       -1.9843552283   -0.3311422658    0.5425998709
C        1.8802080790    1.2422474463    2.0311867211
N       -3.7035759139   -1.6059802399   -0.9247573875
N        0.5306884460    0.0743581493    0.5082034556
O        0.5458480172    0.9566385492    1.6113774384
Cl      -7.7698861837    1.0537771684    4.2649680967
H       -4.8581510192    0.5605596476    0.3981764879
H       -2.9147756930    0.5652117106    4.2665487797
H       -7.0158803339    0.8176468911    1.5025467573
H       -5.1136484580    0.8583207398    5.3360366740
H       -1.5724625443    0.6215934378    2.3669353700
H       -0.4532317611   -1.0826773878   -0.8130138150
H        1.8602123435    1.8130704449    2.9637643840
H        2.3954345318    1.8304435497    1.2659094616
H        2.4338178515    0.3129315182    2.1991582930
24   

C       -2.9245094212   -0.9226928390   -0.4107202436
C       -4.9311169022    0.3851075949    1.5176712713
C       -3.7690450264    0.7738806212    3.5951830499
C       -6.1519238849    0.5749407884    2.1768507899
C       -4.9945814300    0.9637747945    4.2435003502
C       -3.7078099340    0.4632814722    2.2183410361
C       -6.1969251030    0.8611091145    3.5425147029
C       -2.3785682327    0.2853814995    1.6476461740
C       -0.5906079863   -0.3393189229   -0.0166853008
C       -1.9932225468   -0.2726569041    0.4582696633
C        1.8705503367    1.1283945941    2.1417820935
N       -3.6482214818   -1.4592593964   -1.1491906187
N        0.5255949911    0.1450483868    0.4893681481
O        0.5383807760    0.9072016715    1.6785433322
Cl      -7.7249406710    1.0949607049    4.3548306851
H       -4.9871869853    0.2043987670    0.4541072627
H       -2.8598849428    0.8604863869    4.1795255798
H       -7.0789631937    0.5049955117    1.6195273476
H       -5.0175193805    1.1920367787    5.3027218329
H       -1.5997073631    0.5790213082    2.3313462409
H       -0.4410413207   -0.8782095475   -0.9460209898
H        1.8453668511    1.6131665641    3.1217501914
H        2.4085624759    1.7732959106    1.4405431858
H        2.4045658239    0.1772250377    2.2331880307
24   

C       -2.9225421127   -0.6403590951   -0.5814978705
C       -4.9507884503    0.1259394128    1.6127475616
C       -3.7594659596    0.9528811709    3.5348599623
C       -6.1598532494    0.3241799587    2.2912327613
C       -4.9729374589    1.1472142834    4.2037543309
C       -3.7113908060    0.4357510970    2.2202635520
C       -6.1845005459    0.8346828510    3.5889719352
C       -2.3866524486    0.2816717306    1.6344289465
C       -0.5832636618   -0.2680835404   -0.0392200434
C       -1.9963171791   -0.1813317332    0.4059734288
C        1.9221692813    0.8717539417    2.2748416843
N       -3.6274672421   -1.0267290462   -1.4248258122
N        0.5473854791    0.0612087721    0.5535442114
O        0.5830994285    0.6177296233    1.8510140964
Cl      -7.6984785955    1.0773795234    4.4246158523
H       -5.0484381234   -0.2715584505    0.6155931604
H       -2.8449212957    1.2118558477    4.0565143760
H       -7.0952968890    0.0778150005    1.8020875611
H       -4.9784040977    1.5451012994    5.2118466028
H       -1.6128979426    0.5903869806    2.3151608806
H       -0.4367194253   -0.6737072555   -1.0345014185
H        1.9165991838    1.2860408994    3.2869434399
H        2.4007726282    1.5893421002    1.6014031742
H        2.5003808667   -0.0573941049    2.2763655697
