28

C     -1.55602   -0.18511   -2.42976
C      0.03682    1.28088    3.46308
C     -0.07780    0.94935    2.09747
C     -1.66678   -0.76797   -3.68816
C     -2.33660    1.90382    1.98808
C     -1.46336    1.43377   -4.70344
C     -1.39885    1.20367   -2.26531
C     -1.03939    1.92163    4.04565
C     -2.19603    2.22494    3.32396
C     -1.23759    1.25797    1.39587
C     -1.35632    1.98725   -3.43051
C     -1.61903    0.05344   -4.81887
C     -1.28627    1.81796   -0.91380
C     -2.39771    3.10914    5.36740
O     -1.17834    2.99802   -0.67131
O     -1.19717    2.32063    5.35753
O     -3.11641    2.82537    4.15420
O     -1.32501    0.84350    0.05794
F     -1.20714    3.31901   -3.35975
Cl    -1.75651   -0.65801   -6.40980
H     -1.59194   -0.80935   -1.54504
H      0.93028    1.04298    4.03077
H      0.73661    0.45231    1.58061
H     -1.78863   -1.84034   -3.79589
H     -3.23107    2.14078    1.42332
H     -1.42438    2.08015   -5.57333
H     -3.01077    2.82505    6.22473
H     -2.13349    4.17521    5.38982
