32

C      6.75180   -4.09088    2.30048
C      8.25154    2.95971    5.63876
C      8.47571    4.08374    4.83918
C      6.13940   -7.16654    5.56323
C      7.99050    1.73295    5.03406
C      8.43535    3.96357    3.44852
C      6.34975   -6.11916    4.63401
C      6.23694   -6.74858    6.87466
C      7.94886    1.60661    3.63248
C      8.17483    2.74066    2.81309
C      6.60941   -4.89468    5.24467
C      7.66488    0.26450    3.09733
C      7.23539   -1.79962    3.09332
C      6.87563   -3.59370    4.70807
C      6.94725   -3.19643    3.39911
C      8.14840    2.69386    1.30515
N      6.58751   -4.84496    1.42671
N      7.44604   -0.82139    3.93191
N      7.59131   -0.03701    1.81114
O      7.30395   -1.41764    1.80421
S      6.58700   -5.07037    6.99254
H      8.27974    3.03784    6.72216
H      8.68099    5.04969    5.29360
H      5.92390   -8.19158    5.28148
H      7.81410    0.85010    5.63829
H      8.61065    4.84253    2.83310
H      6.31327   -6.25289    3.56052
H      6.12035   -7.34387    7.77164
H      7.04769   -2.79611    5.42804
H      8.89244    1.99520    0.91175
H      7.18114    2.34647    0.93072
H      8.34756    3.68623    0.89241
