32

C      7.70918   -1.70889    3.56948
C      0.65996   -1.62983    0.49961
C      0.65024   -0.23213    0.46539
C      1.69039   -2.28713    1.16580
C      1.66542    0.48540    1.10056
C      8.55212   -6.10695    5.30792
C      8.19942   -7.38361    5.63159
C      6.31120   -6.10018    4.64502
C      2.71809   -1.56609    1.80260
C      7.47055   -5.33736    4.72989
C      2.71591   -0.15101    1.77961
C      3.76818   -2.34195    2.48433
C      5.62769   -2.91257    3.30636
C      7.72972   -3.96551    4.34675
C      7.00866   -2.95289    3.76837
C      3.76724    0.69802    2.45712
N      8.30852   -0.71975    3.42912
N      5.05034   -1.89043    2.72935
N      3.55577   -3.58129    2.89712
O      4.79865   -3.96842    3.44066
S      6.53420   -7.69122    5.24510
H     -0.12288   -2.20066    0.00792
H     -0.14429    0.29839   -0.05321
H      1.71748   -3.37191    1.19390
H      1.64534    1.57213    1.07473
H      9.54815   -5.70566    5.46643
H      8.81145   -8.16010    6.07168
H      5.34696   -5.80545    4.26561
H      8.75167   -3.66885    4.57156
H      3.91567    0.40618    3.50037
H      4.74035    0.59770    1.97049
H      3.47117    1.74998    2.43344
