20

C      1.91136   -1.05104   -0.12118
C      1.87231   -1.03525    2.68220
C     -0.90349   -1.50705   -3.32905
C     -1.80175   -0.51820   -3.66041
C      0.83538   -0.43454    0.54390
C      2.94685   -1.62464    0.59603
C      0.84737   -0.44525    1.94891
C      2.92751   -1.61870    1.99234
C     -0.67609   -0.24277   -1.52980
C     -0.25255    0.27122   -0.19780
N     -0.27501   -1.34225   -2.12500
O     -0.81079    1.26425    0.25689
F      3.98566   -2.19825   -0.04564
F     -0.17126    0.09105    2.64280
F      3.93858   -2.18629    2.67029
S     -1.87557    0.67457   -2.42155
H      1.94463   -1.08542   -1.20253
H      1.84778   -1.03915    3.76653
H     -0.67575   -2.37455   -3.93883
H     -2.40845   -0.44373   -4.55397
