39

C      0.35389    1.80465   -0.40171
C      2.92802   -4.15987   -4.11857
C      3.66554   -3.35993   -3.23930
C      1.59279   -4.45676   -3.82703
C      3.06967   -2.86072   -2.07780
C      1.00137   -3.95412   -2.66410
C     -1.00343    1.75581    3.88143
C     -1.30850   -0.27103    3.40886
C      1.73157   -3.15189   -1.77623
C     -1.96538    1.07641   -1.07860
C     -2.04293    1.52270    0.35224
C     -0.75266    0.90432   -0.16751
C      1.07611   -2.56116   -0.54691
C      0.52023   -1.15237   -0.84066
C      0.46333   -0.44581    1.60407
C     -0.32417   -0.50794    0.27444
N      1.26024    2.50420   -0.61456
N     -1.78951    0.68201    4.19617
N     -0.07781    1.52228    2.95836
N     -0.28055    0.20526    2.66608
O     -1.53442   -1.24682    0.50255
H      3.39057   -4.55064   -5.02102
H      4.70457   -3.12664   -3.45694
H      1.01375   -5.08132   -4.50246
H      3.65028   -2.23952   -1.39845
H     -0.03780   -4.19231   -2.44323
H     -1.10815    2.72776    4.34616
H     -1.66600   -1.28870    3.33479
H     -2.48436    0.16256   -1.34566
H     -1.89006    1.82554   -1.85946
H     -2.01511    2.58278    0.57630
H     -2.61663    0.91310    1.04020
H      0.27872   -3.23823   -0.21163
H      1.80521   -2.51461    0.26807
H     -0.10302   -1.19168   -1.74093
H      1.35860   -0.49117   -1.07833
H      1.39534    0.10762    1.47789
H      0.70044   -1.46162    1.92768
H     -1.40090   -2.15651    0.19731
