65

C      2.94092    6.26311    2.59680
C      1.60009    5.87583    2.59985
C      1.42666   -2.02587    4.09855
C      3.96906    5.34138    2.39878
C      0.25896   -1.38541    3.65598
C      2.32627    3.58411    2.19309
C      0.56660    0.33939    5.34672
C      1.30376    4.51988    2.39233
C      2.15815   -1.48954    5.15371
C      1.72358   -0.30343    5.76857
C      3.68334    3.96693    2.19657
C     -0.17265   -0.20769    4.28424
C     -1.84216    2.80535    2.41927
C     -2.21345    4.04897    2.84051
C     -0.06646    4.01628    2.42171
C      5.65526   -3.20649    5.56898
C      2.67067    0.08856    6.88296
C      3.93449   -0.75074    6.58221
C      3.42029   -2.00334    5.82677
C     -3.48702    4.67676    3.28205
C      6.73540    3.90565    0.87266
C      4.06919    0.75717    2.89224
C     -2.65049    1.54716    2.28297
C      4.43869   -2.61798    4.86725
C      6.09515    3.37345    2.16266
C      4.37449    1.64417    1.67703
C     -1.80776    0.31556    2.60460
N     -0.47646    2.80814    2.14915
N      4.68746    3.02737    2.01816
O      5.76533   -3.36927    6.76104
O     -1.07678    4.84030    2.83945
O      6.67434   -3.58676    4.73582
O     -1.31582    0.46310    3.93972
H      3.19853    7.30871    2.74695
H      0.80600    6.59722    2.75939
H      1.74100   -2.94412    3.60620
H      4.99166    5.69992    2.39276
H     -0.31113   -1.81318    2.83817
H      2.03001    2.55112    2.07203
H      0.22174    1.26530    5.79927
H      2.87118    1.16405    6.91472
H      2.24115   -0.18839    7.85484
H      4.59344   -0.17991    5.91655
H      4.50719   -1.01316    7.47323
H      3.15136   -2.77279    6.56243
H     -3.40007    5.08166    4.29654
H     -3.78276    5.49753    2.61859
H     -4.28669    3.93229    3.27752
H      6.67279    3.15895    0.07399
H      6.22641    4.80892    0.52444
H      7.79278    4.14448    1.03455
H      4.93384    0.71368    3.56384
H      3.21875    1.13268    3.46624
H      3.82531   -0.26207    2.57308
H     -3.51956    1.58684    2.94719
H     -3.03151    1.43277    1.25958
H      3.97772   -3.43025    4.28896
H      4.76513   -1.86672    4.13743
H      6.21261    4.09818    2.97446
H      6.62794    2.47425    2.49067
H      3.53725    1.62164    0.97234
H      5.23236    1.23569    1.13194
H     -2.41342   -0.59650    2.52070
H     -0.96625    0.25311    1.90820
H      6.43438   -3.39127    3.81407
