65

C     -1.33369  -10.72204   -1.13682
C     -1.46843   -9.34312   -1.33152
C     -0.95062  -11.21329    0.11650
C     -1.22630   -8.45970   -0.27644
C     -0.69954  -10.33101    1.16945
C     -2.43690   -8.46627    5.37876
C     -3.20726   -9.29970    3.23864
C     -3.50630   -9.09323    6.00891
C     -4.28136   -9.92209    3.87120
C      2.27144   -5.79012    1.33693
C      1.36759   -6.77539    1.08509
C     -2.26527   -8.56137    3.98181
C     -0.84129   -8.94447    0.98632
C     -4.44250   -9.82849    5.26241
C     -1.13227   -7.86116    3.37013
C     -0.58060   -8.01812    2.09999
C      2.20206   -5.11239    2.60515
C      0.44931   -6.39152    3.29123
C      2.92485   -0.26020    3.12331
C      2.96480    0.62585    1.88145
C      3.62259   -0.25932    0.80900
C     -6.60004  -12.12245    6.89837
C     -5.57058  -11.04741    7.35058
C     -6.33449  -11.70720    5.42273
C      4.46079   -1.27207    1.61858
C     -5.64197  -10.41634    5.93395
C      4.06590   -2.27911    3.94985
C      3.03752   -3.39490    4.03229
N     -0.49028   -6.87061    4.08741
N      1.33583   -5.40541    3.54571
N      0.43487   -7.06747    2.04829
N      3.76767   -1.31963    2.90383
N     -6.71436   -9.27972    5.97251
O      2.28428   -0.07701    4.15512
O      3.10317   -4.13602    2.78412
H     -1.52115  -11.40876   -1.95763
H     -1.76771   -8.95631   -2.30182
H     -0.83370  -12.28283    0.26931
H     -1.35505   -7.39013   -0.42407
H     -0.38814  -10.70925    2.13934
H     -1.71509   -7.88997    5.94736
H     -3.10841   -9.37972    2.16244
H     -3.60122   -9.02295    7.09135
H     -4.99061  -10.49120    3.27338
H      3.02760   -5.51770    0.61113
H      1.33415   -7.35295    0.16840
H      1.96241    0.97422    1.62621
H      3.56948    1.50834    2.12025
H      2.85228   -0.79443    0.24544
H      4.23258    0.29982    0.09627
H     -7.62113  -11.91064    7.23047
H     -6.36816  -13.15507    7.15985
H     -5.82092  -10.41271    8.20656
H     -4.57629  -11.46638    7.51319
H     -5.59781  -12.35015    4.93850
H     -7.19049  -11.59598    4.74951
H      4.48641   -2.26285    1.15625
H      5.49761   -0.93076    1.75163
H      4.06590   -1.75971    4.91381
H      5.06424   -2.69315    3.77981
H      2.03193   -2.99050    4.15873
H      3.25154   -4.07450    4.86258
H     -7.59298   -9.56672    6.42341
H     -6.92343   -8.96894    5.01580
H     -6.33765   -8.46770    6.47717
