19   
Generated by ForceBalance from scan.xyz: Frame 1 of 24
C        4.2895400152    1.1376879407    0.6101314024
C        5.1437775767    0.3444569147   -0.1349248682
C        3.0797255775   -0.4107885849   -0.2713617275
C        1.9188736863   -1.2621916098   -0.6356747285
C        4.8485853526   -1.7150799188   -1.5630392861
C       -0.4686836550   -1.5936147575   -0.1291682268
N        3.0108366224    0.6588918085    0.5198275008
N        4.3643776024   -0.6415637012   -0.6945308422
N        0.7337306392   -0.7767996832   -0.1702460836
O        2.0425511831   -2.3063164584   -1.2879288741
H        4.5332981770    2.0131556283    1.1980785989
H        6.2092970937    0.3944313481   -0.3106970255
H        4.3029854714   -1.7122324014   -2.5066543455
H        4.7001270630   -2.6849141586   -1.0867158816
H        5.9114213019   -1.5488374984   -1.7476719778
H       -0.5738889057   -2.1108060572    0.8332631178
H       -0.4065140254   -2.3406516529   -0.9211081191
H       -1.3502597703   -0.9679065856   -0.2949051720
H        0.8077676980    0.0330218831    0.4374568567
19   
Generated by ForceBalance from scan.xyz: Frame 2 of 24
C        4.2677528668    1.1036160646    0.6399351167
C        5.1353941007    0.3072746791   -0.0868068036
C        3.0632525833   -0.3994014367   -0.3247952428
C        1.9023714814   -1.2217285562   -0.7474205805
C        4.8558117567   -1.7129795464   -1.5728936943
C       -0.4274660373   -1.5947217111   -0.0702730599
N        2.9844805386    0.6557778399    0.4855754611
N        4.3597336509   -0.6479332936   -0.7007536515
N        0.6981795494   -0.7079025523   -0.3457284318
O        2.0382296486   -2.2849418510   -1.3628801973
H        4.5055613434    1.9596840652    1.2580807989
H        6.2085707347    0.3358009655   -0.2144761419
H        4.3431892124   -1.6825692577   -2.5345047193
H        4.6747230057   -2.6887673927   -1.1208223024
H        5.9267590739   -1.5613033474   -1.7189539707
H       -0.3723145224   -2.0123099506    0.9435308991
H       -0.4114607826   -2.4145536340   -0.7889885610
H       -1.3662196534   -1.0452064387   -0.1797902035
H        0.7938291177    0.1063252009    0.2555605234
19   
Generated by ForceBalance from scan.xyz: Frame 3 of 24
C        4.2221631675    1.0705732473    0.6774742716
C        5.1110145511    0.2742634325   -0.0242842500
C        3.0406474806   -0.3855342899   -0.3836357193
C        1.8880681129   -1.1762335267   -0.8791253168
C        4.8702567647   -1.7027047124   -1.5732105179
C       -0.3637289113   -1.5751346689   -0.0095088397
N        2.9409505180    0.6523184988    0.4476777835
N        4.3506644144   -0.6488208346   -0.7012229733
N        0.6626068215   -0.6609296162   -0.5169793696
O        2.0389789156   -2.2403015959   -1.4864345176
H        4.4443368345    1.9062094541    1.3284960803
H        6.1898891356    0.2832849161   -0.0943862164
H        4.3993030463   -1.6460064026   -2.5547423793
H        4.6578573462   -2.6848208806   -1.1492719480
H        5.9481801059   -1.5624177360   -1.6711904123
H       -0.1394906074   -1.9036631972    1.0138629569
H       -0.4144918238   -2.4499415204   -0.6587230486
H       -1.3346142978   -1.0734555791   -0.0202121431
H        0.7731740693    0.1776774485    0.0495314805
19   
Generated by ForceBalance from scan.xyz: Frame 4 of 24
C        4.1551899760    1.0234269263    0.7142748065
C        5.0652174410    0.2302942320    0.0351049566
C        3.0046135803   -0.3863874926   -0.4402325912
C        1.8656027500   -1.1455020328   -1.0071352545
C        4.8709654545   -1.7004560330   -1.5761729460
C       -0.2819374515   -1.5512866407    0.0722077945
N        2.8812109327    0.6333526998    0.4113447817
N        4.3256419624   -0.6609182177   -0.7026664306
N        0.6161208340   -0.6472368967   -0.6628421095
O        2.0326580815   -2.1953041833   -1.6309136025
H        4.3584974299    1.8381610649    1.3971640352
H        6.1463327037    0.2226162177    0.0191815550
H        4.4482643068   -1.6114551874   -2.5770922599
H        4.6241493375   -2.6894508195   -1.1883268352
H        5.9542728753   -1.5751108771   -1.6193185036
H        0.0736720219   -1.7291034003    1.0957892351
H       -0.3428161326   -2.5040659027   -0.4556964449
H       -1.2816837494   -1.1116431452    0.1116125364
H        0.7380955187    0.2276327151   -0.1543630370
19   
Generated by ForceBalance from scan.xyz: Frame 5 of 24
C        4.0782867200    0.9786446453    0.7548010703
C        5.0128453013    0.1958225997    0.0958491844
C        2.9711644609   -0.3843209823   -0.4951434205
C        1.8529417670   -1.1123642547   -1.1357785960
C        4.8793747702   -1.6843390108   -1.5786715875
C       -0.1708217382   -1.5014440094    0.1428791606
N        2.8174001347    0.6120585062    0.3799919282
N        4.3020977347   -0.6645057732   -0.7025358615
N        0.5753972507   -0.6453272080   -0.8012717170
O        2.0430598228   -2.1314553904   -1.7978807467
H        4.2566089019    1.7709331065    1.4703178235
H        6.0934134850    0.1771762385    0.1318703633
H        4.5082350736   -1.5607881936   -2.5962063660
H        4.6031271832   -2.6813828229   -1.2333735406
H        5.9647670161   -1.5713769248   -1.5639382361
H        0.3129219079   -1.5411050900    1.1281505095
H       -0.2423746444   -2.5117215804   -0.2642501231
H       -1.1822129093   -1.1035104409    0.2566031079
H        0.6867650692    0.2724517686   -0.3699225524
19   
Generated by ForceBalance from scan.xyz: Frame 6 of 24
C        3.9946340494    0.9570603833    0.7861504260
C        4.9567098929    0.1939678185    0.1423207571
C        2.9406585393   -0.3685599851   -0.5473711319
C        1.8498054619   -1.0718947345   -1.2562420569
C        4.8950592537   -1.6341517265   -1.5915182640
C       -0.0363559681   -1.4206513764    0.2089523066
N        2.7510868481    0.6019523580    0.3504629731
N        4.2808257771   -0.6429245328   -0.7078532119
N        0.5395909282   -0.6549465558   -0.9218602119
O        2.0714660918   -2.0398047439   -1.9771197700
H        4.1432743494    1.7282199869    1.5309780921
H        6.0350697258    0.1757878051    0.2209926286
H        4.5910381294   -1.4591480718   -2.6238758883
H        4.5814546545   -2.6397792817   -1.3090486774
H        5.9790737502   -1.5433366347   -1.5042138276
H        0.5428227338   -1.2949749293    1.1336170508
H       -0.0747283492   -2.4802319981   -0.0540070003
H       -1.0588810444   -1.0734552669    0.3769957439
H        0.6140660821    0.3093644785   -0.5940544918
19   
Generated by ForceBalance from scan.xyz: Frame 7 of 24
C        4.0430039070    0.6985445228    0.8715350030
C        4.9739067696   -0.0011525740    0.1195793068
C        2.9255648131   -0.4756758189   -0.5459639814
C        1.8286821607   -1.0946931138   -1.3161057184
C        4.8433937294   -1.6408436089   -1.7812568047
C       -0.0932152271   -1.0843389085    0.2382419255
N        2.7805580170    0.3941108574    0.4551022797
N        4.2582464136   -0.7549610988   -0.7746333278
N        0.5394424252   -0.6348206210   -1.0193679535
O        2.0547150150   -1.8177913858   -2.2909172754
H        4.2270222771    1.3977778699    1.6773167262
H        6.0548402759   -0.0183867788    0.1399873564
H        4.6240657064   -1.2745743940   -2.7850489941
H        4.4312749258   -2.6455058923   -1.6877819052
H        5.9230711864   -1.6670553915   -1.6230147574
H       -1.0843813326   -0.6293714843    0.3091357629
H        0.5016277808   -0.7392592477    1.0848269261
H       -0.1970793845   -2.1767236834    0.2818342673
H       -0.0334600469   -0.9488976058   -1.8028640700
19   
Generated by ForceBalance from scan.xyz: Frame 8 of 24
C        4.0016856610    0.6310982259    0.9069893222
C        4.9448498880   -0.0320365237    0.1396215152
C        2.9065924894   -0.5200335305   -0.5490566929
C        1.8304000650   -1.1233059152   -1.3666024018
C        4.8523073243   -1.6118977805   -1.8115816525
C       -0.0640374286   -1.0031092124    0.2647207890
N        2.7454243791    0.3199052133    0.4743901675
N        4.2442794005   -0.7681075329   -0.7819674459
N        0.5270066758   -0.7559470137   -1.0629141563
O        2.0959591762   -1.7823600593   -2.3788492045
H        4.1706095377    1.3078999611    1.7348351492
H        6.0256112743   -0.0383833880    0.1679222345
H        4.6213804189   -1.2266204271   -2.8050992037
H        4.4683211946   -2.6298183925   -1.7436755749
H        5.9323015309   -1.6123491420   -1.6529148083
H       -1.0680387223   -0.5713476390    0.2797944593
H        0.5363293987   -0.5094976271    1.0273419947
H       -0.1359114076   -2.0760048746    0.4873308259
H       -0.0606544106   -1.1444920880   -1.7984088230
19   
Generated by ForceBalance from scan.xyz: Frame 9 of 24
C        3.9976944652    0.5639081407    0.9073180628
C        4.9448138564   -0.0725459915    0.1240792163
C        2.9096496931   -0.5566678298   -0.5797553725
C        1.8469129222   -1.1354423304   -1.4361509814
C        4.8685691822   -1.5983027259   -1.8682353315
C       -0.0298125780   -0.9609763143    0.2491032570
N        2.7435438004    0.2555894641    0.4649807389
N        4.2496150922   -0.7865133991   -0.8191327584
N        0.5328329463   -0.8811555731   -1.1064987457
O        2.1377609312   -1.7211888545   -2.4880598860
H        4.1606563215    1.2188472562    1.7536680454
H        6.0253914647   -0.0782005758    0.1570727778
H        4.6630162346   -1.1725757283   -2.8506437165
H        4.4707115242   -2.6127098249   -1.8473895202
H        5.9448033587   -1.6191386522   -1.6864210365
H       -1.0662258307   -0.6161038421    0.2081917046
H        0.5312650425   -0.3123560431    0.9181771135
H       -0.0156134415   -1.9879979134    0.6375914447
H       -0.0538861468   -1.3191143701   -1.8121454324
19   
Generated by ForceBalance from scan.xyz: Frame 10 of 24
C        3.9652713565    0.4625057940    1.0205775992
C        4.9275118111   -0.0914513902    0.1948733885
C        2.9054528591   -0.5921261020   -0.5333794486
C        1.8579183486   -1.1609127148   -1.4136180056
C        4.8902551520   -1.4902996423   -1.8898767340
C       -0.0275101236   -0.7776442867    0.2575306547
N        2.7188197884    0.1446494799    0.5624934336
N        4.2505446181   -0.7635417091   -0.7916330331
N        0.5438244659   -0.9499612728   -1.0834004131
O        2.1636565305   -1.7400667042   -2.4666420766
H        4.1119879764    1.0644318042    1.9082738847
H        6.0078999847   -0.0661442304    0.2249180477
H        4.6346589833   -1.0356979588   -2.8470961139
H        4.5541003312   -2.5268793476   -1.9059203329
H        5.9700609134   -1.4521392495   -1.7336114380
H       -1.1124456210   -0.8684684222    0.1658550205
H        0.2200988222    0.2023326093    0.6627274897
H        0.3328638161   -1.5387532422    0.9579603546
H       -0.0505737634   -1.4222627151   -1.7564046048
19   
Generated by ForceBalance from scan.xyz: Frame 11 of 24
C        3.9541309635    0.3372157890    1.0711268511
C        4.9168889162   -0.1362435826    0.1981424535
C        2.8996423845   -0.6883355872   -0.5063681431
C        1.8583997144   -1.2785428722   -1.3810374614
C        4.8879806805   -1.4415439459   -1.9458232368
C       -0.0524258300   -0.6792647208    0.2211434546
N        2.7103694773   -0.0110365261    0.6270934832
N        4.2437582459   -0.7896196363   -0.8037470218
N        0.5453473526   -1.1125129958   -1.0430176144
O        2.1741229213   -1.8765844799   -2.4218549907
H        4.0980354521    0.9019439476    1.9833758169
H        5.9956534266   -0.0655728462    0.2036418038
H        4.5558949980   -0.9881480715   -2.8796771237
H        4.6320919827   -2.5005273596   -1.9731914987
H        5.9674080644   -1.3208832236   -1.8351807083
H       -1.1339266141   -0.8064450836    0.1304374896
H        0.1705618858    0.3682171208    0.4262063314
H        0.3076166598   -1.2713835995    1.0669864803
H       -0.0571157723   -1.5959899208   -1.6988025401
19   
Generated by ForceBalance from scan.xyz: Frame 12 of 24
C        3.6091621865    1.1942501250   -0.1572867452
C        4.6879300941    0.4569077363   -0.6104325358
C        2.9321567763   -0.8476848368   -0.3170587808
C        2.1269871521   -2.0925999924   -0.3025998501
C        5.0874049965   -1.9595246930   -1.1605003060
C        0.0346401804   -0.9016589540    0.5947819620
N        2.5286624465    0.3778990278    0.0214248527
N        4.2545849374   -0.8415255023   -0.7122028140
N        0.8320894456   -2.0323312989    0.1212946922
O        2.6243647208   -3.1694719911   -0.6695720556
H        3.5625117202    2.2567191694    0.0447340042
H        5.7010633530    0.7375701359   -0.8625027083
H        4.6614759115   -2.4170890586   -2.0531904561
H        5.1490282402   -2.7226500298   -0.3848144452
H        6.0830795631   -1.5686187961   -1.3791823573
H       -0.0670732324   -0.1306648823   -0.1718059651
H        0.4788539130   -0.4384745011    1.4781504792
H       -0.9554228186   -1.2865689421    0.8511351979
H        0.3886030244   -2.9419598225    0.0805079251
19   
Generated by ForceBalance from scan.xyz: Frame 13 of 24
C        3.6482278212    1.1585649523   -0.0851547236
C        4.7021460162    0.4284021884   -0.6040862748
C        2.9545772808   -0.8758593421   -0.2644770077
C        2.1469721142   -2.1186115026   -0.2341700672
C        5.0658467541   -1.9762040716   -1.2260432697
C        0.0168592617   -0.9046872699    0.5183898380
N        2.5720321689    0.3429255241    0.1195985423
N        4.2579982772   -0.8651915836   -0.7187005043
N        0.8737859155   -2.0626073354    0.2575451541
O        2.6340642548   -3.1963748630   -0.6107382890
H        3.6161655318    2.2158360974    0.1450074364
H        5.7045820837    0.7111860427   -0.8937639136
H        4.5899876972   -2.4253992225   -2.0975065427
H        5.1738018520   -2.7473393807   -0.4633921866
H        6.0462162519   -1.5803695471   -1.4983577274
H       -0.0682816663   -0.2545562460   -0.3566910054
H        0.4009862583   -0.3058557651    1.3447324954
H       -0.9739143956   -1.2848857306    0.7788940494
H        0.4218078546   -2.9666050824    0.1849654964
19   
Generated by ForceBalance from scan.xyz: Frame 14 of 24
C        3.6980078297    1.1264177406    0.0004701738
C        4.7173650620    0.4035362035   -0.5934077846
C        2.9738818430   -0.8940889712   -0.2101616666
C        2.1578446483   -2.1302924657   -0.1666814785
C        5.0231404822   -1.9839511593   -1.3065709331
C       -0.0099418018   -0.9184405431    0.4104491761
N        2.6241986069    0.3150820031    0.2308169954
N        4.2534671727   -0.8809124269   -0.7280652756
N        0.9035068719   -2.0670364675    0.3842150252
O        2.6320301883   -3.2125469090   -0.5431081719
H        3.6894333896    2.1756695787    0.2666101519
H        5.7075847557    0.6860828648   -0.9226496858
H        4.4883550262   -2.4185840418   -2.1509368141
H        5.1814782629   -2.7673890240   -0.5654683026
H        5.9830027783   -1.5845936284   -1.6397891655
H       -0.1248341772   -0.4618939278   -0.5788226346
H        0.3475224477   -0.1542740718    1.0986081716
H       -0.9838527471   -1.2821623371    0.7465721828
H        0.4581917684   -2.9756293601    0.3093500108
19   
Generated by ForceBalance from scan.xyz: Frame 15 of 24
C        3.7945664394    1.0979727147    0.1485988284
C        4.7666704728    0.3896737347   -0.5361636763
C        3.0184920303   -0.8948566430   -0.1293548199
C        2.1879344675   -2.1221104368   -0.0866109288
C        4.9859472238   -1.9640235759   -1.3817921948
C       -0.0380761479   -0.9709252811    0.2486020152
N        2.7177079029    0.2951437356    0.3924267304
N        4.2690253469   -0.8766274214   -0.7137193612
N        0.9375662964   -2.0438849896    0.4883705475
O        2.6586135854   -3.2114217675   -0.4416726564
H        3.8225744921    2.1308501812    0.4713827752
H        5.7438845146    0.6716493557   -0.9026474461
H        4.3758977751   -2.3866158348   -2.1799265642
H        5.2175247047   -2.7596177370   -0.6732669863
H        5.9075253473   -1.5531470259   -1.7984972326
H       -0.3943817325   -0.9672651172   -0.7901147502
H        0.4108178590   -0.0078783184    0.4814261631
H       -0.8919764172   -1.1331246834    0.9114057593
H        0.5269506042   -2.9738390696    0.4645692985
19   
Generated by ForceBalance from scan.xyz: Frame 16 of 24
C        3.8143133935    1.1214159808    0.2087147009
C        4.7709853927    0.4174095576   -0.5035358078
C        3.0141560439   -0.8553083618   -0.1028232822
C        2.1528136038   -2.0588082520   -0.0878747040
C        4.9486737263   -1.9212154797   -1.4041224482
C       -0.0847406850   -0.9793347874    0.2167810094
N        2.7317112122    0.3259563947    0.4483329258
N        4.2560241189   -0.8380413692   -0.7050130554
N        0.9472112457   -1.9625749539    0.5927081015
O        2.5702467945   -3.1433366800   -0.5110541959
H        3.8591908152    2.1463224859    0.5543748424
H        5.7496263708    0.6948783316   -0.8698081555
H        4.3345475774   -2.2991765218   -2.2215742070
H        5.1518705134   -2.7466327653   -0.7213138766
H        5.8855902198   -1.5233666801   -1.7984136385
H       -0.4763248597   -1.1627414500   -0.7926007232
H        0.3329758588    0.0247571702    0.2715056319
H       -0.9069106389   -1.0529286022    0.9332192343
H        0.5571374956   -2.9029023953    0.6223419870
19   
Generated by ForceBalance from scan.xyz: Frame 17 of 24
C        3.8793882207    1.1220528135    0.2654242081
C        4.8114199607    0.4166410920   -0.4797622507
C        3.0409156517   -0.8327869908   -0.0697803590
C        2.1414494484   -2.0034237193   -0.0747582636
C        4.9240309853   -1.9056960571   -1.4351981135
C       -0.1219440030   -1.0380883519    0.1597303947
N        2.7873973228    0.3422024302    0.5088533911
N        4.2695540583   -0.8235449568   -0.6996136720
N        0.9730650083   -1.8785474408    0.6874470143
O        2.4952041618   -3.0850856537   -0.5533875039
H        3.9504395306    2.1381853735    0.6321675762
H        5.7903167059    0.6832289127   -0.8536908264
H        4.2791979757   -2.2625201929   -2.2381901849
H        5.1364890049   -2.7442083568   -0.7706601134
H        5.8548567786   -1.5172061708   -1.8524146167
H       -0.4892986235   -1.3982359891   -0.8104941979
H        0.2283999265   -0.0100492670    0.0596426824
H       -0.9449393619   -1.0500234787    0.8787355567
H        0.6296467569   -2.8334622759    0.7919882379
19   
Generated by ForceBalance from scan.xyz: Frame 18 of 24
C        3.9231836977    1.1226657910    0.5387712595
C        4.8336843368    0.5011584908   -0.3021416411
C        3.0797261120   -0.7928281476    0.0231379892
C        2.1458860789   -1.9352553710   -0.0765776746
C        4.9105971922   -1.7178058418   -1.4947457081
C       -0.1404819253   -1.1658456023   -0.1575647484
N        2.8427284351    0.3123750987    0.7346827557
N        4.2942908287   -0.7181386083   -0.6221007934
N        0.9357504679   -1.7958056320    0.6434534822
O        2.3552491063   -2.8711185959   -0.8420679034
H        3.9986430943    2.0997266942    0.9983444180
H        5.7910985014    0.8197942138   -0.6909978872
H        4.2942286928   -1.8800240457   -2.3797310568
H        5.0097315603   -2.6678547568   -0.9690108775
H        5.8960907584   -1.3525565784   -1.7886036706
H       -1.0495007630   -1.1340177860    0.4482513955
H       -0.3399535391   -1.7778957740   -1.0401388704
H        0.1183236544   -0.1458076049   -0.4718733434
H        1.1246838445   -1.1490292833    1.4108411492
19   
Generated by ForceBalance from scan.xyz: Frame 19 of 24
C        4.0150985358    1.1212113268    0.5392556999
C        4.9006719590    0.4727117715   -0.3066963045
C        3.0869282215   -0.7435759456   -0.0146693950
C        2.0999780268   -1.8388688656   -0.1455972412
C        4.8802132035   -1.7270433936   -1.5385672100
C       -0.2611388639   -1.2852451212   -0.1700367941
N        2.8962221919    0.3582744141    0.7146000017
N        4.3069415987   -0.7157113157   -0.6500344968
N        0.9315233544   -1.6744186725    0.6092594457
O        2.2492541594   -2.7462872022   -0.9625303695
H        4.1322742994    2.0858407934    1.0159564975
H        5.8738927834    0.7529169938   -0.6856407163
H        4.2793922472   -1.8206859576   -2.4440378260
H        4.9012940330   -2.6969769388   -1.0413960309
H        5.8956882294   -1.4196550684   -1.7942548311
H       -1.1303317983   -1.2828605226    0.4923033434
H       -0.4323407946   -2.0192011104   -0.9596779626
H       -0.1484833567   -0.2892663360   -0.6191187911
H        1.1095324063   -0.9408013142    1.2954820449
19   
Generated by ForceBalance from scan.xyz: Frame 20 of 24
C        4.1093391597    1.1177613839    0.5655072395
C        4.9765828494    0.4416030167   -0.2766222019
C        3.0992074669   -0.6864891246   -0.0416504104
C        2.0619013286   -1.7303082781   -0.2131396419
C        4.8678991436   -1.7322425100   -1.5511216750
C       -0.3515356361   -1.3926861394   -0.1609006590
N        2.9495340864    0.4090344584    0.7051486359
N        4.3293986852   -0.7090347054   -0.6544086844
N        0.9232879897   -1.5395514369    0.5583429714
O        2.1704633237   -2.6190001572   -1.0602167295
H        4.2653305855    2.0662759608    1.0629513046
H        5.9697939489    0.6784919319   -0.6323427391
H        4.2813816511   -1.7782274886   -2.4694407615
H        4.8292183423   -2.7109278384   -1.0724335849
H        5.9029119029   -1.4731174768   -1.7807490964
H       -1.1760851825   -1.4409875057    0.5547237288
H       -0.4598908182   -2.2141443027   -0.8705743086
H       -0.4012914718   -0.4393654394   -0.7035791075
H        1.0756853934   -0.7479920970    1.1820710105
19   
Generated by ForceBalance from scan.xyz: Frame 21 of 24
C        4.1937446375    1.1162731900    0.5959850882
C        5.0482220802    0.4135116557   -0.2362563423
C        3.1139880631   -0.6262428735   -0.0673141508
C        2.0335456066   -1.6191569988   -0.2815974765
C        4.8658019411   -1.7304646711   -1.5536941103
C       -0.4054749334   -1.4944380393   -0.1346575016
N        2.9968503738    0.4626684101    0.6934176761
N        4.3547166825   -0.6976581460   -0.6519657282
N        0.9151349226   -1.4007525326    0.4929361491
O        2.1184990048   -2.5014216317   -1.1408010890
H        4.3823006263    2.0474274063    1.1145184655
H        6.0609734850    0.6063408175   -0.5620126339
H        4.3009183208   -1.7328642507   -2.4865775077
H        4.7685749068   -2.7140604234   -1.0937777275
H        5.9174622965   -1.5175559991   -1.7533893120
H       -1.1725807184   -1.5601329296    0.6410029800
H       -0.4468109069   -2.3970785478   -0.7452918284
H       -0.6109991150   -0.6239587180   -0.7714690399
H        1.0296978431   -0.5716084968    1.0724331668
19   
Generated by ForceBalance from scan.xyz: Frame 22 of 24
C        4.2555126958    1.1032922771    0.6224420385
C        5.0986151509    0.3735563262   -0.1971847913
C        3.1121872632   -0.5724384051   -0.1023370214
C        1.9929436387   -1.5116959988   -0.3622093690
C        4.8498869693   -1.7362385848   -1.5591837660
C       -0.4485174974   -1.5720014437   -0.1168554105
N        3.0251892362    0.5076103702    0.6737070658
N        4.3629377488   -0.6945183219   -0.6543361713
N        0.8807816196   -1.2535565154    0.3940578815
O        2.0668248020   -2.4039276275   -1.2143371230
H        4.4739646398    2.0147712057    1.1637310957
H        6.1294589214    0.5196773468   -0.4884407958
H        4.3036805348   -1.7049673992   -2.5025417036
H        4.7048591807   -2.7207351446   -1.1139629884
H        5.9127992523   -1.5627248491   -1.7363061555
H       -1.1450107714   -1.6927835327    0.7170691363
H       -0.3955692427   -2.5088580502   -0.6722316886
H       -0.8222142037   -0.7856127875   -0.7855885829
H        0.9642847712   -0.4047198032    0.9473865039
19   
Generated by ForceBalance from scan.xyz: Frame 23 of 24
C        4.2926377697    1.1142464473    0.6595639003
C        5.1315834018    0.3678834800   -0.1486148413
C        3.1102711239   -0.5056553575   -0.1260201264
C        1.9673339855   -1.4043530688   -0.4279302314
C        4.8456314707   -1.7078474450   -1.5549478364
C       -0.4620700008   -1.6218868219   -0.0878796412
N        3.0401305435    0.5632810977    0.6661190222
N        4.3701286028   -0.6645236329   -0.6457575401
N        0.8426817805   -1.0930389647    0.2760299682
O        2.0501849371   -2.3287857371   -1.2461377608
H        4.5289993706    2.0067709702    1.2244322009
H        6.1754412171    0.4791277886   -0.4068822585
H        4.3266433029   -1.6426999354   -2.5120424892
H        4.6550735471   -2.6936634071   -1.1308795547
H        5.9179512138   -1.5669568787   -1.7019709768
H       -1.0712893719   -1.7611765907    0.8096594317
H       -0.3201225410   -2.5862394812   -0.5767402754
H       -0.9917580218   -0.9531969467   -0.7786051346
H        0.9039775007   -0.2423350990    0.8267881715
19   
Generated by ForceBalance from scan.xyz: Frame 24 of 24
C        4.3254655242    1.2011750569    0.6675652629
C        5.1815974230    0.4334419009   -0.1011557502
C        3.1418355583   -0.3939226132   -0.1654214128
C        1.9965120274   -1.2778817820   -0.5026091925
C        4.9113571062   -1.6411954957   -1.5120316029
C       -0.4228777605   -1.5859690494   -0.1050747292
N        3.0615082677    0.6783533933    0.6208012352
N        4.4188820978   -0.5827162184   -0.6298236237
N        0.8326892518   -0.8803948018    0.0770344920
O        2.1165686783   -2.2660128405   -1.2385587132
H        4.5573596752    2.0888873394    1.2417859785
H        6.2381419075    0.5194082867   -0.3132522890
H        4.4001887404   -1.6010914940   -2.4744887661
H        4.7259676332   -2.6197320672   -1.0688265769
H        5.9834074453   -1.4929712400   -1.6538006083
H       -0.7785267529   -2.0108339013    0.8408676612
H       -0.2559458966   -2.3965730780   -0.8152159119
H       -1.1917674117   -0.9144663815   -0.5027301094
H        0.8844153775   -0.0521678244    0.6605184245
