14   

C       -0.3065418074    0.8554452302   -2.0520908644
C       -0.4546071975   -0.1050800792   -0.9694483587
C       -1.0805968508    0.5379219941   -3.1382621077
C       -1.3506898695   -1.1149877132   -1.2687436784
C       -1.7304182729   -2.2922533309   -0.4666153984
C       -1.3075251488   -2.3876740257    0.9916122989
O       -2.3294401386   -3.2374974564   -0.9720184232
S       -2.0200036806   -0.9296851055   -2.8906921579
H        0.3465368758    1.7205702857   -2.0057612190
H        0.0920380422   -0.0322575505   -0.0351020141
H       -1.1170693571    1.1170168673   -4.0534648629
H       -1.7454320578   -1.5604187418    1.5561697142
H       -0.2181807601   -2.3424598497    1.0665301184
H       -1.6537870126   -3.3325632040    1.4199500640
14   

C       -0.2946146803    0.8543354180   -2.0632366693
C       -0.3905704092   -0.1379795954   -1.0036018180
C       -1.1700098077    0.6058752774   -3.0889428375
C       -1.3587959404   -1.0927946966   -1.2525436759
C       -1.6833273090   -2.3078098064   -0.4759223624
C       -1.3076735678   -2.3896238432    0.9961750883
O       -2.1351530253   -3.3085596990   -1.0232198911
S       -2.1483104726   -0.8300432806   -2.8075575757
H        0.3984979118    1.6888568193   -2.0469810288
H        0.2475000665   -0.1298686926   -0.1262533585
H       -1.2565903307    1.2162465002   -3.9801345524
H       -1.8727267999   -1.6425996672    1.5597353626
H       -0.2379120328   -2.2061645686    1.1215347019
H       -1.5443507139   -3.3831302299    1.3874690265
14   

C       -0.2472500663    0.8028544600   -2.0890824847
C       -0.3015569375   -0.2145016959   -1.0503401806
C       -1.2328573655    0.6398536473   -3.0285810747
C       -1.3545341552   -1.0924862340   -1.2209316686
C       -1.6491226625   -2.3311886240   -0.4580830067
C       -1.3278700468   -2.4003524379    1.0281803346
O       -1.9728501424   -3.3657276587   -1.0291846102
S       -2.2696669691   -0.7407641317   -2.6857324463
H        0.4977547650    1.5908389301   -2.1228164539
H        0.4284739058   -0.2814418225   -0.2508320982
H       -1.3654325490    1.2803265504   -3.8925753391
H       -2.0969435284   -1.8640203079    1.5901478586
H       -0.3540910141   -1.9502028492    1.2323120450
H       -1.3089759072   -3.4428386114    1.3582059226
14   

C       -0.2100581629    0.7893804171   -2.1149994077
C       -0.2200324475   -0.2596222585   -1.1067707268
C       -1.2786484074    0.6981936606   -2.9701733769
C       -1.3235462433   -1.0812301735   -1.2088630145
C       -1.5776250923   -2.3475233285   -0.4612913751
C       -1.3629723415   -2.3849655669    1.0448145539
O       -1.7322831720   -3.4089119416   -1.0488497906
S       -2.3422045239   -0.6494009635   -2.5794849529
H        0.5642091274    1.5456140798   -2.1904713666
H        0.5749159618   -0.3935491727   -0.3806580813
H       -1.4554125805    1.3714437511   -3.8006888402
H       -2.2712229411   -2.0418185098    1.5470163962
H       -0.5321626990   -1.7361102695    1.3307283941
H       -1.1418484788   -3.4064206530    1.3665781676
14   

C       -0.6219401132    0.8800546429   -2.0639342588
C       -1.1450669118   -0.0649323251   -1.0889284289
C       -0.4755852035    0.3165193193   -3.3061678316
C       -1.4151212492   -1.2964541590   -1.6403818861
C       -1.8168223781   -2.5434715178   -0.9060892980
C       -3.1130385441   -2.5508040717   -0.1111175659
O       -1.0245455112   -3.4563687255   -0.7369375789
S       -0.9754480894   -1.3714155038   -3.3435786419
H       -0.3631516171    1.9071574079   -1.8291029967
H       -1.2771956364    0.1702088714   -0.0378255443
H       -0.0907773541    0.8407871675   -4.1729719716
H       -3.9398218568   -2.8261304966   -0.7710029510
H       -3.3060755802   -1.5595495666    0.3062203740
H       -3.0494891480   -3.2758781439    0.7049040942
14   

C       -0.4983585793    0.8467284436   -2.0643722618
C       -0.9173150948   -0.0855629361   -1.0284651517
C       -0.5621045741    0.2927324677   -3.3180270522
C       -1.2879360180   -1.3051362919   -1.5376537288
C       -1.7648391147   -2.5112642233   -0.7692471844
C       -3.2429103803   -2.6513961684   -0.4462145155
O       -0.9797236160   -3.3504274001   -0.3625347335
S       -1.1304492870   -1.3735894261   -3.2894570251
H       -0.1687174277    1.8608435302   -1.8643969061
H       -0.9267173699    0.1539079884    0.0300369520
H       -0.2907167437    0.8124329392   -4.2294039903
H       -3.8078221689   -2.7936918823   -1.3710004500
H       -3.5978313180   -1.7472774144    0.0549524870
H       -3.4046895234   -3.5117206660    0.2092585705
14   

C       -0.4076486584    0.8153501051   -2.0198481983
C       -0.7440421611   -0.0978614223   -0.9381253719
C       -0.6851207357    0.2832450834   -3.2532392629
C       -1.2369854488   -1.2979385216   -1.3913625990
C       -1.7865034570   -2.4130662445   -0.5485148739
C       -3.2534178808   -2.7944071724   -0.6762892021
O       -1.0475526772   -3.1403789562    0.0954182174
S       -1.3539669410   -1.3418513260   -3.1490884197
H        0.0114389096    1.8039468769   -1.8644081809
H       -0.6261350177    0.1430807986    0.1137090770
H       -0.5117780972    0.7962050631   -4.1919720625
H       -3.5480461233   -2.8230501448   -1.7279259722
H       -3.8664028216   -2.0557162255   -0.1534181836
H       -3.4253089657   -3.7787302465   -0.2319375270
14   

C       -0.3297919579    0.7853784564   -2.0242358663
C       -0.6382617849   -0.1261216702   -0.9330614708
C       -0.7584377474    0.3075160527   -3.2360617880
C       -1.2578311543   -1.2794122889   -1.3598061234
C       -1.8276026026   -2.3393563969   -0.4745410517
C       -3.2384271113   -2.8552834105   -0.7184024297
O       -1.1176405569   -2.9397640343    0.3196301895
S       -1.5395931073   -1.2641396704   -3.1005008736
H        0.1764274804    1.7354641904   -1.8893311657
H       -0.4155802507    0.0813282884    0.1091217402
H       -0.6319416084    0.8301550350   -4.1769369034
H       -3.3779081659   -3.1048176883   -1.7726687242
H       -3.9603613820   -2.0861498132   -0.4316945637
H       -3.4179387635   -3.7511268645   -0.1173123927
14   

C       -0.2647010379    0.7737388386   -2.0497159179
C       -0.5570472603   -0.1356684096   -0.9524829017
C       -0.8238301465    0.3581741221   -3.2309975862
C       -1.3000820959   -1.2283284570   -1.3470606837
C       -1.8651163358   -2.2571847922   -0.4338124941
C       -3.2149375267   -2.8929964164   -0.7337063171
O       -1.1824790589   -2.7286443510    0.4671185346
S       -1.7145038074   -1.1506403229   -3.0597689477
H        0.3240027100    1.6784257057   -1.9398272553
H       -0.2362347197    0.0278429055    0.0719939934
H       -0.7307530010    0.8911810536   -4.1699501612
H       -3.2312974664   -3.2895780716   -1.7515546323
H       -4.0030426141   -2.1434537473   -0.6237667145
H       -3.4053030201   -3.7116387173   -0.0339044083
14   

C       -0.2137574712    0.7509424413   -2.0810933688
C       -0.5107853899   -0.1501515131   -0.9782809578
C       -0.8788734023    0.4034070253   -3.2290949921
C       -1.3729220135   -1.1669913658   -1.3360935539
C       -1.9360842633   -2.1781790101   -0.4091852739
C       -3.2262287883   -2.9092162246   -0.7516566983
O       -1.3019172712   -2.5312447509    0.5789154469
S       -1.8816470963   -1.0284044940   -3.0194649443
H        0.4548296975    1.6013749076   -1.9983682359
H       -0.1073201459   -0.0367779974    0.0236814202
H       -0.8003304008    0.9431407381   -4.1655234271
H       -3.1513080921   -3.3661766609   -1.7413497131
H       -4.0607705038   -2.2032662491   -0.7391285984
H       -3.4160558048   -3.6949998409   -0.0150054668
14   

C       -0.1762592943    0.7332293767   -2.1015453704
C       -0.4698753351   -0.1626618289   -0.9935717124
C       -0.9431258164    0.4622517148   -3.2060017371
C       -1.4424016995   -1.0931795458   -1.3023089839
C       -1.9927736353   -2.1044403436   -0.3714735702
C       -3.2306188280   -2.9085832360   -0.7412622970
O       -1.4132207524   -2.3549658378    0.6803912698
S       -2.0445311182   -0.8868226032   -2.9474878143
H        0.5642079940    1.5247328294   -2.0534983913
H        0.0166160311   -0.1090447722   -0.0239214862
H       -0.8834507362    1.0116447979   -4.1381938527
H       -3.0722464363   -3.4250569030   -1.6912820091
H       -4.0907967490   -2.2398102061   -0.8292163947
H       -3.4374011245   -3.6518374386    0.0339548603
14   

C       -0.1398066281    0.6900776531   -2.1089646621
C       -0.4399870213   -0.2006549647   -0.9985703237
C       -0.9905634521    0.5043687790   -3.1687924858
C       -1.5113528857   -1.0332458531   -1.2567245076
C       -2.0595452104   -2.0468075813   -0.3281696986
C       -3.2471366570   -2.9084359845   -0.7313763168
O       -1.5579644205   -2.2042578899    0.7805844471
S       -2.1843065527   -0.7532483081   -2.8630562711
H        0.6659967331    1.4164067841   -2.0948130969
H        0.1140036116   -0.2147924202   -0.0643690183
H       -0.9405862867    1.0649885155   -4.0948497606
H       -3.0058456311   -3.4743282742   -1.6348293352
H       -4.1173845464   -2.2745640992   -0.9200964877
H       -3.4878391561   -3.6106362702    0.0718237840
14   

C       -0.1157399018    0.6562634798   -2.1057691049
C       -0.4080271488   -0.2373615760   -0.9956183574
C       -1.0562115561    0.5735422251   -3.1007480091
C       -1.5708550505   -0.9584949081   -1.1821617379
C       -2.1055814874   -1.9836147615   -0.2573902270
C       -3.2543445728   -2.8878343910   -0.6798489463
O       -1.6743232407   -2.0663163370    0.8881755346
S       -2.3297514608   -0.5842793813   -2.7300224415
H        0.7497210262    1.3097013053   -2.1385483662
H        0.2182721563   -0.3350501558   -0.1135876738
H       -1.0268589791    1.1532991173   -4.0158413465
H       -2.9306772286   -3.5344016562   -1.4996614318
H       -4.1060049896   -2.2854362973   -1.0056129827
H       -3.5660430722   -3.5122486862    0.1622293715
14   

C       -0.0996297779    0.6145465619   -2.1190381723
C       -0.3999016519   -0.2788660712   -1.0108762343
C       -1.1011112164    0.6345095915   -3.0558675126
C       -1.6328272759   -0.8873203105   -1.1334554190
C       -2.1730206403   -1.9205873837   -0.2173056566
C       -3.2577898203   -2.8800510149   -0.6852782710
O       -1.8476585908   -1.9289745745    0.9647551831
S       -2.4445338598   -0.4199812545   -2.6283211745
H        0.8150985102    1.1932385650   -2.1930369273
H        0.2723406934   -0.4587692028   -0.1770354975
H       -1.0772193568    1.2311279360   -3.9602213481
H       -2.8484620002   -3.5525445009   -1.4436883712
H       -4.0987183260   -2.3246590177   -1.1074905297
H       -3.6180353894   -3.4753115951    0.1585410460
14   

C       -0.0774863825    0.5527855171   -2.1178010678
C       -0.3906852830   -0.3332301495   -1.0072601032
C       -1.1242379767    0.6746536744   -2.9954095305
C       -1.6771755629   -0.8264753962   -1.0631013315
C       -2.2433077816   -1.8538892055   -0.1488016513
C       -3.2382223368   -2.8812379572   -0.6692750395
O       -2.0537401969   -1.7811944517    1.0589874196
S       -2.5268026786   -0.2694956592   -2.5049958226
H        0.8778609099    1.0531295798   -2.2364315034
H        0.3122388556   -0.5907481631   -0.2206279251
H       -1.1004111383    1.2837221298   -3.8914336568
H       -2.7336905016   -3.5569562477   -1.3648785767
H       -4.0652646689   -2.3845417837   -1.1819723152
H       -3.6403043323   -3.4659593383    0.1629306887
14   

C       -0.0683469250    0.4832954704   -2.1269849190
C       -0.3906636079   -0.4092954432   -1.0242410757
C       -1.1523772122    0.7269994588   -2.9307939666
C       -1.7159660733   -0.7826698754   -1.0095420520
C       -2.3234443515   -1.7980050239   -0.0974803990
C       -3.2064670089   -2.8988722048   -0.6670429433
O       -2.2862138867   -1.6511708156    1.1159005964
S       -2.6009098767   -0.1053960687   -2.3762099098
H        0.9189032237    0.9012963796   -2.2935160854
H        0.3351752122   -0.7554830400   -0.2948023464
H       -1.1300028161    1.3618236760   -3.8088009861
H       -2.5872706129   -3.6120820042   -1.2173925863
H       -3.9561525625   -2.4779976964   -1.3408728291
H       -3.7173025475   -3.4254846704    0.1440039547
14   

C       -0.0589788318    0.4168979721   -2.1765494702
C       -0.3938758657   -0.4943642497   -1.0927200614
C       -1.1638043411    0.7964161446   -2.8953754279
C       -1.7418161475   -0.7495755374   -1.0120213468
C       -2.4115914334   -1.7288531260   -0.0910236035
C       -3.1377370937   -2.9302511961   -0.6766125115
O       -2.5471705920   -1.4862142054    1.0974299167
S       -2.6463463993    0.0722908208   -2.2814888442
H        0.9503125255    0.7527543374   -2.3902105781
H        0.3403665255   -0.9321334383   -0.4237226207
H       -1.1375784264    1.4690758461   -3.7446315565
H       -2.4050855605   -3.6764254077   -0.9948155713
H       -3.7374445494   -2.6282512330   -1.5384234050
H       -3.7951010849   -3.3747544525    0.0758376032
14   

C       -0.6052817233    1.0091775234   -2.0888250232
C       -1.1464987589    0.3438660674   -0.9131341308
C       -0.5009997927    0.1617972836   -3.1629389571
C       -1.4240385114   -0.9810423145   -1.1402192483
C       -2.0007126556   -1.9753138371   -0.1647514271
C       -1.0666035557   -2.7431401566    0.7553395439
O       -3.2050976050   -2.1360297022   -0.0667222928
S       -1.0528723325   -1.4682729045   -2.7903979654
H       -0.3229342857    2.0564798253   -2.1116275524
H       -1.3201671398    0.8423494658    0.0351358047
H       -0.1268004095    0.4543463344   -4.1369702250
H       -0.4168962990   -2.0439669021    1.2878850403
H       -0.4504955213   -3.4257190216    0.1644919584
H       -1.6451405852   -3.3198291557    1.4824519119
14   

C       -0.4871542745    0.9742211331   -2.0568033314
C       -0.9474172067    0.2149028808   -0.9040266189
C       -0.5328198952    0.2392091043   -3.2143030960
C       -1.2838391138   -1.0800864315   -1.2256654796
C       -1.9347339465   -2.0913443136   -0.3261043314
C       -1.2142315919   -2.5312456653    0.9386402260
O       -3.1124617685   -2.3836764894   -0.4572348947
S       -1.1222723202   -1.3987445843   -2.9496634143
H       -0.1610379778    2.0077519434   -2.0066104698
H       -1.0425169708    0.6359851297    0.0915697214
H       -0.2461586424    0.6164943048   -4.1888617703
H       -0.6272884937   -1.7045654738    1.3462124644
H       -0.5433349292   -3.3611338587    0.7019863361
H       -1.9386071067   -2.8592732352    1.6892017510
14   

C       -0.4234991453    0.9296278618   -2.0361253700
C       -0.8243100039    0.1375057862   -0.8833355230
C       -0.6092328661    0.2582292543   -3.2177554179
C       -1.2573627321   -1.1247078004   -1.2333179558
C       -1.8960043232   -2.1382527483   -0.3434972628
C       -1.2762760885   -2.4418399835    1.0128229738
O       -3.0198234132   -2.5627668352   -0.5726440856
S       -1.2616402085   -1.3595422774   -2.9790499258
H       -0.0383938644    1.9416012778   -1.9677226261
H       -0.8127898458    0.5184453119    0.1324751568
H       -0.3881075870    0.6699704732   -4.1954261049
H       -0.8262724872   -1.5427134296    1.4395228469
H       -0.5021962123   -3.2042705516    0.8929241216
H       -2.0412410942   -2.8152407316    1.6992619542
14   

C       -0.3897662485    0.8964937483   -2.0364351687
C       -0.7374800805    0.0719919908   -0.8891600050
C       -0.6982548038    0.2884814174   -3.2263109959
C       -1.2639674749   -1.1519888433   -1.2544037807
C       -1.8611434866   -2.1918134354   -0.3796199062
C       -1.3066648112   -2.4141911382    1.0204042781
O       -2.9082092892   -2.7510237967   -0.6832084283
S       -1.4082450793   -1.3068972450   -3.0042623791
H        0.0496705084    1.8852848193   -1.9572060058
H       -0.6173707838    0.4058994906    0.1358856865
H       -0.5325318713    0.7328923592   -4.2006326246
H       -1.1010099274   -1.4592229954    1.5085556058
H       -0.3808240232   -2.9917319949    0.9556040869
H       -2.0297516385   -2.9690344215    1.6248425603
14   

C       -0.3436589821    0.8790896237   -2.0286630312
C       -0.6420081041    0.0209014014   -0.8923394750
C       -0.8080609940    0.3586914806   -3.2092306099
C       -1.3014107853   -1.1379791521   -1.2575414775
C       -1.8598170092   -2.1968289221   -0.3906537969
C       -1.3224494232   -2.3826866526    1.0205372463
O       -2.8383137072   -2.8506162734   -0.7374369261
S       -1.6140575313   -1.1910152175   -2.9923719127
H        0.1774032241    1.8272794929   -1.9478778057
H       -0.3864552041    0.2817781131    0.1292306184
H       -0.7000398080    0.8402041813   -4.1739842511
H       -1.4110829722   -1.4492780853    1.5815312482
H       -0.2717787145   -2.6810178434    0.9755715233
H       -1.8905944218   -3.1615049686    1.5371009684
14   

C       -0.3115283965    0.8590296485   -2.0500534171
C       -0.5657069667   -0.0318939899   -0.9283241354
C       -0.8765374101    0.4042412455   -3.2135057435
C       -1.3066916913   -1.1437342377   -1.2849035480
C       -1.8115499548   -2.2397516592   -0.4379145525
C       -1.3208430629   -2.3805464553    0.9951791426
O       -2.6770608332   -3.0098379120   -0.8449375615
S       -1.7314763177   -1.1188774578   -2.9972358497
H        0.2557329370    1.7805533807   -1.9718957157
H       -0.2147697297    0.1694638576    0.0783660603
H       -0.8124287812    0.9173055767   -4.1658362394
H       -1.5464756641   -1.4704377774    1.5565356831
H       -0.2412363244   -2.5516606695    0.9988093529
H       -1.8163032409   -3.2274974441    1.4782682968
14   

C       -0.3066924171    0.8648430536   -2.0602561104
C       -0.5085707788   -0.0624512893   -0.9575424371
C       -0.9773836595    0.4801447480   -3.1923659430
C       -1.3294720944   -1.1237153871   -1.2930204723
C       -1.7724029326   -2.2610624425   -0.4683687259
C       -1.3152675850   -2.3771666537    0.9779159699
O       -2.5113566758   -3.1274156332   -0.9287933249
S       -1.8767144749   -1.0158054972   -2.9672974459
H        0.3050278512    1.7583412535   -1.9927381502
H       -0.0581449465    0.0739021487    0.0200627900
H       -0.9631961341    1.0275634918   -4.1274654334
H       -1.6493068022   -1.5027442648    1.5422324947
H       -0.2247666234   -2.4400412994    1.0167036852
H       -1.7394381562   -3.2768275505    1.4327452349
