42

C     -2.76584   -0.23845    2.51350
C     -1.69025   -0.77501    1.79959
C     -4.04955   -0.78467    2.36104
C     -1.86486   -1.86490    0.93697
C     -2.27130   -5.27689    2.41338
C     -0.06404   -4.38635    2.06925
C     -4.22903   -1.87129    1.51392
C     -1.27042   -4.85054    1.53822
C     -3.13667   -2.42712    0.82626
C     -2.10136   -5.20747    3.79653
C     -0.90740   -4.68519    4.34263
C      0.10496   -4.30310    3.44935
C     -2.93045   -4.65144   -0.39353
C     -5.48369   -2.64691    1.17818
C     -2.65016   -5.27857    6.94225
C     -5.05996   -3.45013   -0.06915
C     -2.83728   -6.28514    5.80754
C     -1.79884   -4.09817    6.47330
C     -1.48446   -4.88784    0.03726
N     -3.58294   -3.51756    0.03554
O     -3.52373   -5.49337   -1.07001
O     -3.16236   -5.62823    4.56703
O     -0.67725   -4.54605    5.68685
Cl     1.60066   -3.65273    4.08942
H     -2.61007    0.61108    3.17263
H     -0.70024   -0.33966    1.90444
H     -4.89570   -0.36024    2.89659
H     -1.02214   -2.23880    0.37046
H     -3.21271   -5.67242    2.04330
H      0.73808   -4.05245    1.41813
H     -5.74868   -3.31884    2.00414
H     -6.34541   -2.00431    0.98024
H     -3.61863   -4.89928    7.28740
H     -2.17323   -5.78918    7.78648
H     -5.46406   -4.46016   -0.11685
H     -5.33264   -2.92729   -0.99270
H     -1.93511   -6.88921    5.66975
H     -3.67382   -6.95834    6.00894
H     -2.39386   -3.39553    5.88172
H     -1.36584   -3.55743    7.31795
H     -0.81898   -4.17402   -0.45754
H     -1.23558   -5.87428   -0.36264
