39

C      2.10554  -10.48016    1.93572
C      2.03373  -10.31476    3.32715
C      1.25758   -9.76575    1.08191
C      1.11153   -9.42903    3.90021
C     -3.91370   -9.12030    1.60638
C      0.33748   -8.88551    1.64733
C     -3.96623   -8.23631    0.47069
C      0.28251   -8.73419    3.03051
C     -4.52142  -10.29879    1.24859
C     -4.61064   -8.92788   -0.56263
C     -0.64534   -8.04008    0.90765
C     -3.44722   -6.87782    0.36891
C     -4.76573  -11.53716    2.05085
C     -4.90541   -8.51335   -1.96796
C     -5.65841  -11.19304   -0.82028
C     -2.45574   -6.37823    1.44195
N     -4.92546  -10.17587   -0.08371
N     -1.43618   -7.35441    1.82392
O     -0.76113   -7.95328   -0.30273
O     -3.77533   -6.06516   -0.49382
O     -2.06471   -8.14652    4.22333
O     -0.38148   -6.29238    3.96257
S     -0.96684   -7.53756    3.46987
H      2.83101  -11.17248    1.51813
H      2.70239  -10.87869    3.97120
H      1.29857   -9.87931    0.00281
H      1.05010   -9.29332    4.97561
H     -3.51380   -8.90832    2.58791
H     -5.83156  -11.78792    2.11815
H     -4.24613  -12.41195    1.63930
H     -4.39592  -11.38272    3.06701
H     -4.42899   -9.18397   -2.69386
H     -5.98354   -8.51503   -2.17106
H     -4.53371   -7.50298   -2.12900
H     -6.73912  -11.09737   -0.66273
H     -5.45232  -11.10265   -1.88737
H     -5.34456  -12.18591   -0.49412
H     -3.02462   -6.12272    2.34197
H     -1.99095   -5.46929    1.05497
