47

C      5.35066   -0.44020   -1.39348
C      8.76300   -1.76124   -2.04056
C      8.68412   -3.04572   -1.48696
C      7.64081   -0.93772   -2.02036
C      7.48875   -3.50167   -0.93728
C      4.88498   -4.11798    0.69494
C      3.46444   -4.17620    0.86856
C      6.43318   -1.38444   -1.45219
C      6.33877   -2.69083   -0.90773
C      5.11715   -3.21161   -0.31222
C      2.92001   -3.31630   -0.04928
C      1.04435    1.26838   -0.67420
C      0.42002    0.35921   -1.76625
C     -0.44328    0.54147    1.27863
C      1.69278   -0.75436    0.68073
C     -1.15421   -1.11069   -0.38779
C      0.98857    0.61203    0.71560
C      0.15151   -1.05359   -1.22349
C     -2.77968    0.10987    0.91083
C      1.51228   -2.93900   -0.39203
N      4.53632    0.39174   -1.34724
N     -1.45679    0.13937    0.30476
N      1.36085   -1.50648   -0.53310
O      3.91909   -2.72854   -0.77361
H      9.69022   -1.40667   -2.48100
H      9.55285   -3.69841   -1.49992
H      7.68595    0.06653   -2.43039
H      7.42617   -4.51201   -0.54438
H      5.63703   -4.64003    1.27174
H      2.91543   -4.76625    1.59053
H      2.09323    1.45981   -0.91541
H      0.52914    2.23405   -0.64315
H     -0.51566    0.78581   -2.13779
H      1.11287    0.27074   -2.60789
H     -0.44550   -0.12578    2.16499
H     -0.72731    1.53863    1.63709
H      2.77796   -0.60184    0.70931
H      1.42235   -1.32313    1.58875
H     -1.99079   -1.30683   -1.06873
H     -1.10927   -1.97242    0.30940
H      1.55593    1.23125    1.42053
H      0.01344   -1.73444   -2.07106
H     -3.53569   -0.10105    0.14708
H     -3.00687    1.08657    1.35140
H     -2.87681   -0.65306    1.70849
H      1.23309   -3.40793   -1.34471
H      0.86733   -3.38989    0.38826
