25

C      6.49880   -0.30307    3.19710
C      6.09603    0.77899    3.98397
C      5.79521   -0.57364    2.02409
C      0.91567   -0.96023    0.65336
C      1.06842    0.91613    2.14194
C      5.00536    1.54777    3.56025
C     -0.12425   -1.44170    1.44553
C      1.52914    0.25283    1.00226
C      4.71545    0.25300    1.68769
C      0.01408    0.33276    2.85069
C      3.93332   -0.02834    0.43349
C      2.67825    0.80313    0.18134
N      4.32451    1.29848    2.43719
N     -0.57931   -0.80324    2.53853
O      4.27384   -0.91845   -0.33288
Br    -0.63754    1.25178    4.42017
H      7.34128   -0.92215    3.49370
H      6.61067    1.02767    4.90759
H      6.05305   -1.39917    1.36901
H      1.24715   -1.51954   -0.21691
H      1.52273    1.84250    2.47206
H      4.66702    2.39722    4.15099
H     -0.62130   -2.37845    1.20145
H      2.45239    0.72298   -0.88420
H      2.85991    1.84514    0.44687
