36

C     -4.41218    3.33480   -0.68905
C     -4.70183    1.58015   -5.19045
C     -0.87193   -2.86258   -5.54020
C     -4.83331    3.48791   -1.99117
C     -4.98527    2.58727   -4.29578
C     -3.71398    2.16914   -0.30254
C     -1.26390   -2.09839   -4.40719
C     -3.97555    0.45893   -4.72307
C     -0.51556   -4.13853   -5.09923
C     -4.55956    2.47516   -2.94690
C     -3.41554    1.15153   -1.19542
C     -3.83637    1.29658   -2.56106
C     -1.13372   -2.93407   -3.29560
C     -1.25273   -2.98909   -1.84715
C     -2.68458   -0.03402   -0.58311
C     -0.66068   -4.32559   -1.39963
C     -0.52138   -5.16390   -2.69501
N     -3.55886    0.32082   -3.47888
N     -1.72136   -2.16296   -0.97755
N     -0.67202   -4.15714   -3.74596
N     -2.26773   -1.00296   -1.46168
O     -2.47850   -0.07656    0.62637
H     -4.61776    4.10456    0.04971
H     -5.01595    1.63047   -6.22855
H     -0.83739   -2.52320   -6.56790
H     -5.37810    4.37610   -2.30305
H     -5.53546    3.47289   -4.60585
H     -3.39349    2.03495    0.72552
H     -1.57188   -1.06296   -4.39885
H     -3.72926   -0.35478   -5.40470
H     -0.16745   -5.00339   -5.64780
H      0.31968   -4.15037   -0.94561
H     -1.29144   -4.80907   -0.65192
H      0.44601   -5.66620   -2.77783
H     -1.31178   -5.91732   -2.78199
H     -2.55433   -0.90104   -2.44138
