39

C     -4.21434   -1.29712    4.08919
C     -5.14536   -2.03841    4.83252
C     -3.44875   -1.90320    3.08695
C     -5.33414   -3.40555    4.59125
C     -4.31915   -9.09647    1.60849
C     -3.63331   -3.26302    2.84428
C     -4.42319   -8.34935    0.38039
C     -4.55902   -3.98240    3.59461
C     -5.11458  -10.20834    1.49649
C     -5.30310   -9.05498   -0.45415
C     -2.90461   -4.08439    1.83300
C     -3.79391   -7.07517    0.06826
C     -5.39271  -11.29790    2.48204
C     -5.79534   -8.74331   -1.83055
C     -6.66540  -11.14784   -0.26266
C     -2.81253   -6.49172    1.10938
N     -5.69878  -10.17716    0.22619
N     -3.41338   -5.38171    1.84800
O     -1.99149   -3.70424    1.12056
O     -3.98484   -6.42425   -0.95986
O     -4.01991   -6.59418    4.05695
O     -5.88458   -6.01911    2.45926
S     -4.59809   -5.68610    3.06294
H     -4.08887   -0.23816    4.29622
H     -5.72945   -1.54764    5.60581
H     -2.72365   -1.34675    2.50082
H     -6.05447   -3.98615    5.15929
H     -3.76568   -8.82802    2.49787
H     -6.46104  -11.38391    2.71477
H     -5.04863  -12.27931    2.13164
H     -4.86839  -11.07823    3.41470
H     -5.48695   -9.50939   -2.55362
H     -6.89018   -8.68330   -1.85894
H     -5.38757   -7.78476   -2.14665
H     -7.68941  -10.84807   -0.01171
H     -6.58409  -11.24317   -1.34631
H     -6.46718  -12.12345    0.18311
H     -1.97245   -6.05692    0.56454
H     -2.43857   -7.23363    1.81813
