43

C     -6.11944   -2.45549   -2.04816
C     -5.78415   -3.31946   -3.11170
C     -5.22587   -1.47154   -1.62829
C     -4.56659   -3.21671   -3.78769
C     -3.99841   -1.37529   -2.29086
C     -3.68558   -2.21817   -3.36152
C     -2.85709   -0.47236   -2.08297
C     -0.19253    0.93377   -2.58803
C     -0.16560   -1.28848    0.10491
C      0.61163   -1.00229   -1.18581
C      0.99716    1.31106   -0.49947
C      0.19296    1.11285    0.79673
C      0.23365   -0.36311    1.27305
C      0.63746    2.11579    1.86560
C      1.58448   -0.77080    1.86484
C     -0.87116   -0.02860   -3.57699
N     -2.43127   -1.86885   -3.90024
N     -1.88054   -0.91052   -2.99048
N      0.52424    0.40942   -1.54962
O     -2.71837    0.46279   -1.29825
O     -0.24974    2.13955   -2.82551
O     -0.70432   -0.55279    2.35181
H     -7.08187   -2.56361   -1.55661
H     -6.49585   -4.08049   -3.42066
H     -5.45898   -0.79627   -0.81002
H     -4.32565   -3.87629   -4.61687
H     -1.23030   -1.14481   -0.09689
H     -0.02130   -2.33228    0.40564
H      1.67306   -1.25069   -1.05383
H      0.23592   -1.62576   -1.99562
H      0.89005    2.33213   -0.86318
H      2.06523    1.12460   -0.32566
H     -0.85323    1.32104    0.53557
H      1.71888    2.07505    2.03639
H      0.13673    1.91718    2.81712
H      0.39108    3.13641    1.55467
H      1.80965   -0.17771    2.75367
H      2.40011   -0.64110    1.14827
H      1.55187   -1.82295    2.16268
H     -0.11037   -0.65991   -4.04994
H     -1.32005    0.60206   -4.34815
H     -1.79456   -2.66060   -3.99487
H     -1.58147   -0.29669    2.02078
