32

C      5.84501   -4.00583   -3.95030
C      4.79147   -3.38443   -3.27578
C      2.85483   -1.51087    1.94708
C      1.59057   -1.29056   -0.10317
C      1.83306   -0.89768    2.65908
C      0.56486   -0.67803    0.59511
C      6.98632   -4.41741   -3.25652
C      6.01299   -3.57605   -1.17793
C      2.75895   -1.72011    0.56092
C      4.86928   -3.16690   -1.89109
C      0.65459   -0.46194    2.00027
C      7.03668   -4.18842   -1.87998
C     -1.56972    0.58167    1.99419
C     -0.25447    0.35449    4.12745
N      3.85258   -2.34870   -0.05006
N      3.74962   -2.52982   -1.30127
N     -0.36800    0.14864    2.69164
F      8.14690   -4.58811   -1.20145
H      5.78059   -4.17221   -5.02202
H      3.89862   -3.05926   -3.80114
H      3.75556   -1.84282    2.45637
H      1.50847   -1.44858   -1.17352
H      1.95061   -0.75747    3.72671
H     -0.31768   -0.36138    0.05182
H      7.82029   -4.90262   -3.75405
H      6.08448   -3.41343   -0.10855
H     -2.25554    1.03791    2.70835
H     -2.08975   -0.26015    1.51849
H     -1.34411    1.32751    1.22088
H     -1.15422    0.84940    4.49355
H      0.60552    0.98897    4.37895
H     -0.14874   -0.59615    4.66671
