30   

C        7.4088334641   -5.7624291309    4.4739046734
C        8.5145224245   -9.1007217474    2.0651761875
C        8.9081622846   -8.8627164207    0.7504780908
C        7.5536100176   -8.2822160544    2.6631895000
C        5.8695129494   -6.0707462493    7.1918309106
C        8.3413573152   -7.8025211742    0.0416787316
C        6.7047468295   -6.2893309689    8.2914086828
C        7.2585759658   -3.9496326967    8.3279215036
C        6.9673924347   -7.2076068112    1.9631319111
C        5.7284027005   -4.7859583455    6.6416372821
C        7.4090015023   -5.2300376770    8.8676803881
C        7.3780495002   -6.9689871861    0.6265692874
C        6.4240073611   -3.7110012398    7.2290070365
C        6.1084805353   -5.8316144251    3.8837436596
C        5.9329487567   -6.3757122745    2.6157510687
N        8.4762619879   -5.7349945670    4.9414829478
N        4.8853712158   -4.5612544145    5.5605342111
N        4.9847088712   -5.1600474085    4.4187072086
O        4.7966623889   -6.1701124576    1.9578735073
Cl       8.4552991915   -5.4980065325   10.2392492723
Cl       6.7588721971   -5.6273014718   -0.3189787795
Cl       6.2804358986   -2.0832583280    6.5947377346
H        8.9520372255   -9.9207389962    2.6238330259
H        9.6540001582   -9.4947433887    0.2808136957
H        7.2530239319   -8.4925129137    3.6836069868
H        5.3251121373   -6.9002658822    6.7557483022
H        8.6536341734   -7.6104601261   -0.9783339464
H        6.8114896746   -7.2862301007    8.7027529297
H        7.8023142739   -3.1219137797    8.7665498441
H        4.2294435053   -5.5732350572    2.4799135077
30   

C        7.4340434616   -5.6053752183    4.3806631357
C        8.4829188244   -9.1135714598    2.1357351767
C        8.8624860780   -8.9512360061    0.8061132748
C        7.5375936713   -8.2541160074    2.6997134462
C        6.0126851107   -6.1751276496    7.1508077090
C        8.2981921170   -7.9246199149    0.0485712862
C        6.8782174297   -6.3748152016    8.2299412408
C        7.2432189904   -4.0021031224    8.3683194495
C        6.9500327656   -7.2129133239    1.9508941448
C        5.7580971608   -4.8824731366    6.6641768721
C        7.5027620009   -5.2891628516    8.8474197646
C        7.3504306114   -7.0494072506    0.5971564899
C        6.3754212951   -3.7823657273    7.2914014237
C        6.1170346657   -5.8311998838    3.8741944966
C        5.9375271114   -6.3380708243    2.5859440417
N        8.5161711906   -5.4474826733    4.7837734105
N        4.8751295147   -4.6775533199    5.6113629175
N        4.9653054834   -5.2617680469    4.4623231022
O        4.8528744645   -6.0141993870    1.8923555684
Cl       8.5836715400   -5.5334004068   10.1962723533
Cl       6.7506282952   -5.7515654314   -0.4206201043
Cl       6.0924581792   -2.1444399331    6.7347194790
H        8.9200709803   -9.9063227674    2.7326989733
H        9.5967548449   -9.6148104357    0.3624376490
H        7.2505953963   -8.4067310839    3.7341430679
H        5.5280155863   -7.0250928030    6.6847077195
H        8.6021839772   -7.7900724737   -0.9831234802
H        7.0686054485   -7.3773105224    8.5946938226
H        7.7252939566   -3.1537683825    8.8386204102
H        4.3016909398   -5.4105911038    2.4236081412
30   

C        7.4455351276   -5.4645795599    4.3275162015
C        8.4685533088   -9.1358585941    2.2169413506
C        8.8368019873   -9.0423175930    0.8782622800
C        7.5379280312   -8.2399961894    2.7471891427
C        6.1499915905   -6.2621526251    7.1425746512
C        8.2761029289   -8.0475743433    0.0777766065
C        7.0435270382   -6.4219012286    8.2050279736
C        7.2281096786   -4.0323888026    8.4010893559
C        6.9509824230   -7.2293567516    1.9559188930
C        5.7872024567   -4.9814241278    6.6958571820
C        7.5913819004   -5.3074572121    8.8435520041
C        7.3426592262   -7.1355413120    0.5901290746
C        6.3294404188   -3.8529605257    7.3420898186
C        6.1432556347   -5.8478668214    3.8836756551
C        5.9606342602   -6.3144753670    2.5735965907
N        8.5174162530   -5.1748057492    4.6813962712
N        4.8673653908   -4.8204922688    5.6674550085
N        4.9647899547   -5.3932910120    4.5139916947
O        4.9437916399   -5.8721950354    1.8471299589
Cl       8.7043391836   -5.5023045113   10.1741576076
Cl       6.7596430562   -5.8843790737   -0.4947795888
Cl       5.9140221596   -2.2281239395    6.8320286644
H        8.9037901624   -9.9032661735    2.8474707096
H        9.5602733165   -9.7339169043    0.4603794647
H        7.2628935626   -8.3411974309    3.7910667676
H        5.7231584225   -7.1345840419    6.6617310413
H        8.5730799113   -7.9660729463   -0.9615273063
H        7.3137075819   -7.4158096443    8.5416791362
H        7.6510887705   -3.1616925538    8.8871952808
H        4.4070113851   -5.2607832150    2.3838941304
30   

C        7.4350055742   -5.3207886432    4.2675276226
C        8.4455538084   -9.1527190496    2.2625208485
C        8.8013625931   -9.1243010701    0.9183306824
C        7.5336798721   -8.2205755612    2.7612814066
C        6.2674662486   -6.3302118303    7.1153803920
C        8.2459188213   -8.1588882012    0.0802435904
C        7.1814066067   -6.4426528500    8.1661401668
C        7.1890260131   -4.0501085137    8.4074649708
C        6.9512846844   -7.2353259435    1.9336508684
C        5.8025733268   -5.0726946336    6.6997708200
C        7.6505272485   -5.3026610398    8.8219660932
C        7.3307169381   -7.2102951090    0.5584709256
C        6.2672782224   -3.9187045093    7.3612727674
C        6.1716082716   -5.8533577842    3.8700775049
C        5.9902594090   -6.2756751409    2.5350625248
N        8.4761008721   -4.9044742929    4.5848474353
N        4.8545759605   -4.9648743568    5.6905909356
N        4.9717670439   -5.5218439395    4.5319456331
O        5.0591349430   -5.7133615482    1.7798840878
Cl       8.7864476261   -5.4392892091   10.1402632011
Cl       6.7608067146   -6.0089715699   -0.5889429150
Cl       5.7258636803   -2.3203571191    6.8869819657
H        8.8767676890   -9.8974390545    2.9223386084
H        9.5111892903   -9.8436972514    0.5246538333
H        7.2723332655   -8.2745697061    3.8120587621
H        5.9002126409   -7.2227950305    6.6225263381
H        8.5335578563   -8.1289734257   -0.9644754814
H        7.5272864891   -7.4199412478    8.4813783012
H        7.5512046004   -3.1595161627    8.9065059485
H        4.5397224415   -5.0886245320    2.3179988700
30   

C        7.4209746260   -5.1898542775    4.2369442718
C        8.3841346844   -9.1815324225    2.2851312246
C        8.7179269300   -9.2091680018    0.9361186944
C        7.5077123506   -8.2072847175    2.7659818861
C        6.3931947134   -6.3945441490    7.1132712046
C        8.1732625181   -8.2594813794    0.0743553675
C        7.3279354887   -6.4598638882    8.1492689335
C        7.1801605169   -4.0754453539    8.4246041346
C        6.9386762115   -7.2310285928    1.9165289706
C        5.8373893287   -5.1662367063    6.7245722070
C        7.7294549119   -5.3000638344    8.8151187598
C        7.2926322410   -7.2687646981    0.5321752479
C        6.2352653561   -3.9921126984    7.3941802099
C        6.2083674831   -5.8515453847    3.8791496148
C        6.0295282900   -6.2153145929    2.5129355336
N        8.4198221259   -4.6622303330    4.5226235011
N        4.8629057904   -5.1130047782    5.7371960034
N        4.9993788529   -5.6461659310    4.5702814570
O        5.2064935763   -5.5226940108    1.7432073273
Cl       8.8894886493   -5.3789059073   10.1169322135
Cl       6.7338373179   -6.1068737843   -0.6612168565
Cl       5.5813395720   -2.4275485406    6.9501220011
H        8.8061914544   -9.9148583029    2.9633831800
H        9.4017075340   -9.9605653931    0.5563566040
H        7.2682095716   -8.2221951457    3.8230796149
H        6.0771432472   -7.3028307202    6.6136782357
H        8.4425173042   -8.2755810604   -0.9755818053
H        7.7414684134   -7.4163570422    8.4461550446
H        7.4900979974   -3.1694053267    8.9309887499
H        4.7187000159   -4.8767225900    2.2853837659
30   

C        7.4067228046   -5.0467413213    4.2213712224
C        8.3133455467   -9.2251834206    2.2964007081
C        8.6111185745   -9.3139167250    0.9423357636
C        7.4880974132   -8.2007739694    2.7627819247
C        6.5292119120   -6.4388358623    7.1157962197
C        8.0776653580   -8.3776432403    0.0600370729
C        7.4753638557   -6.4352014131    8.1431318655
C        7.1456523381   -4.0702648768    8.4297600929
C        6.9356487970   -7.2299182935    1.8942650909
C        5.8745550846   -5.2569834291    6.7393644823
C        7.7913648559   -5.2501815763    8.8106376544
C        7.2466793699   -7.3374722116    0.5010750268
C        6.1868980222   -4.0571926923    7.4088067122
C        6.2692662889   -5.8362606944    3.8795692098
C        6.0992000884   -6.1464907901    2.4838271896
N        8.3423440394   -4.4075633370    4.4926917872
N        4.8851546109   -5.2817577694    5.7667219014
N        5.0582179675   -5.7841398247    4.5916621519
O        5.4018599143   -5.3397827690    1.7026473708
Cl       8.9643513354   -5.2440804865   10.1030938845
Cl       6.6894652417   -6.2170583526   -0.7327417703
Cl       5.4091954277   -2.5469598929    6.9765902058
H        8.7252172343   -9.9493264746    2.9906017719
H        9.2570187295  -10.1035006814    0.5739036816
H        7.2816140738   -8.1731684585    3.8263750730
H        6.2785889389   -7.3669307616    6.6155158834
H        8.3162029581   -8.4444899374   -0.9953298461
H        7.9635237104   -7.3581462660    8.4326974964
H        7.3894325817   -3.1446595568    8.9369320666
H        4.9589339474   -4.6604633944    2.2421163263
30   

C        5.9372704288   -7.1171198855    5.0130479338
C        9.3865525905   -7.0695405105    1.5281368673
C        9.2344929541   -7.7486937774    0.3265650514
C        8.2613947618   -6.6630335853    2.2458738674
C        5.6980573564   -4.9871606053    7.6565321517
C        7.9544063724   -8.0105144833   -0.1548420534
C        6.2765912877   -5.4600372191    8.8369665259
C        8.4547648586   -5.2478168766    7.8416925186
C        6.9459649139   -6.9220811029    1.7925069813
C        6.4913954393   -4.6511053738    6.5505656066
C        7.6621317690   -5.5923522897    8.9402959731
C        6.8055945603   -7.6121986010    0.5447944755
C        7.8934326262   -4.7767529353    6.6485002171
C        6.0752307887   -6.0981059409    4.0302329080
C        5.8021410072   -6.4972657289    2.6513144460
N        5.8079030758   -7.9588820256    5.8082227211
N        5.8809768980   -4.1325541358    5.4186832877
N        5.8594848381   -4.7322111154    4.2763307061
O        4.5589541808   -6.6823349599    2.2491925103
Cl       8.3938816475   -6.1627731187   10.4186477569
Cl       5.2690587233   -8.0359146821   -0.1959082669
Cl       8.9545559323   -4.3107050138    5.3332155071
H       10.3787038375   -6.8584768851    1.9117547766
H       10.1050530628   -8.0740298572   -0.2324748646
H        8.4364110359   -6.1386605383    3.1768292667
H        4.6206501714   -4.8831664081    7.5904834088
H        7.8376495121   -8.5422432812   -1.0921996231
H        5.6491018850   -5.7235516936    9.6807794524
H        9.5311612880   -5.3354487905    7.9185885935
H        3.9385832952   -6.3932398754    2.9411670554
30   

C        6.0588896918   -7.0799740361    4.8954892470
C        9.4150984718   -7.1515796606    1.5884852452
C        9.2474661774   -7.9378705704    0.4555121767
C        8.2998437416   -6.6328003097    2.2473416093
C        5.6777558336   -5.1215578385    7.6944583611
C        7.9623068966   -8.1990814596   -0.0139103323
C        6.3592732019   -5.5823817181    8.8233340267
C        8.4521537666   -5.1179036306    7.7355757527
C        6.9816463674   -6.8822560668    1.7995892260
C        6.3756156113   -4.6651695091    6.5675124937
C        7.7543870917   -5.5826051825    8.8541574307
C        6.8241023197   -7.6912463927    0.6296046004
C        7.7873761632   -4.6563168183    6.5924909815
C        6.0720869798   -5.9986020590    3.9689482899
C        5.8487993106   -6.3170070767    2.5849664348
N        6.0423078783   -7.9709166673    5.6463248190
N        5.6533620273   -4.1711946112    5.4906899422
N        5.6734130169   -4.6947338902    4.3111336107
O        4.6222717858   -6.3242527587    2.0889644088
Cl       8.6129155666   -6.1390612064   10.2683156088
Cl       5.2744929952   -8.1481774321   -0.0615456961
Cl       8.7317587072   -4.0375083443    5.2508587277
H       10.4112205626   -6.9428102695    1.9628648955
H       10.1097417534   -8.3488302946   -0.0581608861
H        8.4790821081   -6.0222779429    3.1241254895
H        4.5933340093   -5.1228090631    7.6845279886
H        7.8329134386   -8.8187586479   -0.8938396134
H        5.8043019474   -5.9403478846    9.6830569104
H        9.5345244972   -5.1034112722    7.7573990148
H        4.0032327053   -5.9446762917    2.7374022906
30   

C        6.2060101107   -7.0313569893    4.8434914631
C        9.4033018585   -7.2235871677    1.6025596508
C        9.2038596901   -8.0570638988    0.5082739957
C        8.3085488894   -6.6402040306    2.2418826777
C        5.6416036164   -5.1690241726    7.7211359112
C        7.9076590706   -8.3037308224    0.0601122174
C        6.3840892910   -5.5992547597    8.8231435445
C        8.4100654648   -4.9922933191    7.6806369909
C        6.9823774629   -6.8704773767    1.8103472138
C        6.2743377464   -4.6571662616    6.5797490200
C        7.7766720788   -5.5133567646    8.8126727364
C        6.7906114765   -7.7318792019    0.6865090779
C        7.6838556389   -4.5591704925    6.5636352901
C        6.0559800861   -5.9385720667    3.9407602165
C        5.8717650633   -6.2238300139    2.5594249026
N        6.3311173650   -7.9311895185    5.5732868314
N        5.4846819331   -4.2079276134    5.5298506444
N        5.5244216710   -4.6964595353    4.3351352651
O        4.6772973089   -6.0935130708    2.0034830718
Cl       8.7102201061   -6.0346596132   10.1923828239
Cl       5.2174812135   -8.1804849823    0.0462788118
Cl       8.5493764651   -3.8709827063    5.2022382571
H       10.4078922851   -7.0274184477    1.9607464557
H       10.0499704345   -8.5167539367    0.0092190795
H        8.5060680682   -5.9915421618    3.0874735139
H        4.5596386600   -5.2394760106    7.7428273512
H        7.7528749464   -8.9620585933   -0.7870102640
H        5.8785667599   -6.0017960335    9.6935914587
H        9.4897662023   -4.9123916363    7.6708019838
H        4.0721813462   -5.6590926436    2.6307460271
30   

C        6.3706007104   -6.9658032570    4.8205047074
C        9.4011442327   -7.2666622474    1.5890475923
C        9.1658042930   -8.1515755531    0.5421927096
C        8.3284063511   -6.6378723030    2.2232914531
C        5.5746825305   -5.1985558626    7.7466304704
C        7.8560569559   -8.4063168239    0.1381313695
C        6.3479027763   -5.5930161516    8.8407367615
C        8.3288024930   -4.8706305671    7.6866321488
C        6.9921962207   -6.8738936958    1.8312950866
C        6.1688663834   -4.6477253861    6.6027778575
C        7.7335926123   -5.4322790024    8.8200556639
C        6.7621984156   -7.7893094855    0.7620831083
C        7.5714081431   -4.4707678452    6.5775208083
C        6.0492721750   -5.8971223467    3.9316857094
C        5.9034578389   -6.1698924152    2.5549107317
N        6.6412368409   -7.8452343562    5.5356922328
N        5.3436942692   -4.2469140790    5.5597179333
N        5.4083313725   -4.7165263857    4.3577146670
O        4.7534202035   -5.9223863732    1.9451245803
Cl       8.7047937307   -5.9129621389   10.1886020427
Cl       5.1629610863   -8.2489359239    0.2007724768
Cl       8.3892869425   -3.7332437761    5.2121264664
H       10.4162109035   -7.0651093192    1.9130174270
H        9.9946393805   -8.6453015650    0.0466742512
H        8.5466055664   -5.9473050946    3.0303393454
H        4.4984730960   -5.3288367175    7.7758707971
H        7.6727148075   -9.1054578263   -0.6696524814
H        5.8717877184   -6.0272454502    9.7125308077
H        9.4027627409   -4.7343775450    7.6688305388
H        4.1592689363   -5.4506004552    2.5561250508
30   

C        6.5039044237   -6.9209392499    4.8000522386
C        9.4045432560   -7.3301639212    1.5727035182
C        9.1339246162   -8.2390070860    0.5542090928
C        8.3549298606   -6.6631114983    2.2071586157
C        5.5198327840   -5.2732572460    7.7646464485
C        7.8122903312   -8.4804212911    0.1796870688
C        6.3244377364   -5.6245827993    8.8506722189
C        8.2460314622   -4.7651140972    7.6903912493
C        7.0098253973   -6.8856387709    1.8419162984
C        6.0684262836   -4.6766296846    6.6211734663
C        7.6965873656   -5.3744381148    8.8223702939
C        6.7428397017   -7.8244454950    0.8057492884
C        7.4564022856   -4.4057073047    6.5895716868
C        6.0368460989   -5.8959649625    3.9230356869
C        5.9411662511   -6.1374189606    2.5459636769
N        6.8972500404   -7.7640633325    5.5020403632
N        5.2094825166   -4.3307816583    5.5851044018
N        5.2984983451   -4.7822624807    4.3770245618
O        4.8602673212   -5.7600487129    1.8765186714
Cl       8.7065766570   -5.8050396733   10.1795608816
Cl       5.1198701334   -8.2596853164    0.2974345273
Cl       8.2160320497   -3.6075994569    5.2243667159
H       10.4287580715   -7.1391262962    1.8733886737
H        9.9447137483   -8.7612580393    0.0580843278
H        8.5949865013   -5.9524818383    2.9905880986
H        4.4547548390   -5.4743586409    7.7992355696
H        7.6008667246   -9.1976607977   -0.6050020124
H        5.8834778166   -6.0959283052    9.7216594030
H        9.3090479049   -4.5607516907    7.6666628284
H        4.2699265095   -5.2656598624    2.4736283672
30   

C        6.6417824224   -6.8402206224    4.8031461460
C        9.4118731721   -7.3653761300    1.5639623271
C        9.1007764080   -8.2931500251    0.5735690383
C        8.3896648879   -6.6615853909    2.2039335680
C        5.4664916808   -5.3484033503    7.8052376333
C        7.7663789741   -8.5162830564    0.2323798140
C        6.2969027826   -5.6523751380    8.8859644577
C        8.1468878385   -4.6368369848    7.7355079879
C        7.0341583726   -6.8682911085    1.8720110738
C        5.9664892996   -4.6985801685    6.6687870864
C        7.6467327484   -5.3012926597    8.8593769122
C        6.7255958346   -7.8225467240    0.8656960263
C        7.3300588026   -4.3215731105    6.6406567383
C        6.0321899392   -5.8753067708    3.9442173457
C        5.9876343418   -6.0835288238    2.5655867613
N        7.1535375727   -7.6329090523    5.4875327022
N        5.0807268431   -4.4107263774    5.6372048117
N        5.1976802565   -4.8411083365    4.4233597141
O        4.9867036294   -5.5830024667    1.8513186224
Cl       8.6889565476   -5.6764850454   10.2086979651
Cl       5.0787732488   -8.2214000485    0.4091755678
Cl       8.0254300315   -3.4513939920    5.2851921052
H       10.4459579407   -7.1878407263    1.8379690276
H        9.8902641713   -8.8432327480    0.0731920489
H        8.6570619115   -5.9353767192    2.9640160769
H        4.4194264943   -5.6287112840    7.8379072071
H        7.5230270936   -9.2463917994   -0.5308481215
H        5.8936477378   -6.1662494259    9.7511164528
H        9.1921589364   -4.3551922379    7.7131258776
H        4.3971166343   -5.0769531052    2.4397393463
30   

C        6.7487598552   -6.7880782302    4.8092849220
C        9.3931770301   -7.4397142538    1.5344558563
C        9.0392401963   -8.3820735954    0.5717874838
C        8.4009042437   -6.7033910273    2.1853070502
C        5.4152530679   -5.4569064848    7.8330232115
C        7.6922558259   -8.5863656931    0.2684077859
C        6.2775827045   -5.6930561258    8.9055590837
C        8.0209677975   -4.5087049282    7.7501404462
C        7.0347387516   -6.8944878922    1.8923193281
C        5.8464283481   -4.7582933904    6.6976147990
C        7.5909773395   -5.2243167106    8.8717099946
C        6.6826727675   -7.8589801047    0.9140581251
C        7.1701325042   -4.2581970496    6.6641030410
C        6.0056774042   -5.9100666458    3.9611116813
C        6.0118548789   -6.0782403188    2.5810984261
N        7.3704854446   -7.5087985511    5.4822941926
N        4.9307392749   -4.5511076677    5.6723246352
N        5.0741259539   -4.9692940381    4.4564308548
O        5.1015829660   -5.4622295959    1.8342575484
Cl       8.6737772711   -5.5189128872   10.2091172198
Cl       5.0137674975   -8.2171535461    0.5094962215
Cl       7.7743004458   -3.3196615580    5.3105463936
H       10.4370924538   -7.2755623327    1.7778574395
H        9.8055181862   -8.9566047949    0.0628821565
H        8.6987995958   -5.9648650596    2.9218125117
H        4.3976224899   -5.8296353842    7.8705174724
H        7.4152666253   -9.3252128242   -0.4746348538
H        5.9280713250   -6.2467479877    9.7694832205
H        9.0375035491   -4.1366920253    7.7221685873
H        4.5071291307   -4.9520842237    2.4144662747
30   

C        6.8955024577   -6.6818074657    4.7914499320
C        9.3836006734   -7.5114972669    1.4525008533
C        8.9724710700   -8.4768890828    0.5357332054
C        8.4329529287   -6.7334281113    2.1171973916
C        5.3676714436   -5.5938571303    7.8166948985
C        7.6103314208   -8.6611732891    0.2908941688
C        6.2388698759   -5.7793968646    8.8919918958
C        7.8708009711   -4.3974662252    7.7943359642
C        7.0535253996   -6.9077910725    1.8845083487
C        5.7402154218   -4.8226117046    6.7082112907
C        7.5017913756   -5.1868700870    8.8879060344
C        6.6435417255   -7.8908464623    0.9518221879
C        7.0087951256   -4.1950287247    6.7067852491
C        6.0229157525   -5.9186130978    3.9547775861
C        6.0666587510   -6.0516126296    2.5735291312
N        7.6236345923   -7.3091384178    5.4513857497
N        4.8213374962   -4.6769594081    5.6753427221
N        5.0048882483   -5.0759863106    4.4577164695
O        5.2483088676   -5.3344237512    1.8103714617
Cl       8.5969228672   -5.4217301184   10.2271717129
Cl       4.9503038446   -8.2057257906    0.6222985571
Cl       7.5310113635   -3.1644012091    5.3867776507
H       10.4394614643   -7.3613337859    1.6489527656
H        9.7064287146   -9.0831514495    0.0161119796
H        8.7729808636   -5.9766888154    2.8159622994
H        4.3903744579   -6.0634234386    7.8299084422
H        7.2886832798   -9.4150013212   -0.4183021403
H        5.9363609301   -6.3909190341    9.7343267848
H        8.8480084803   -3.9309293096    7.7890225358
H        4.6524339677   -4.8172708775    2.3829956432
