30

C      0.46523   -3.29817    1.04581
C      3.45435   -3.10222   -1.18516
C     -0.01706   -2.01408    0.95661
C      3.95808   -4.39063   -1.11309
C      1.75650   -1.39302   -0.55395
C      2.15739   -5.01005    0.39290
C      2.28913   -2.71176   -0.47941
C      1.63163   -3.69680    0.32881
C      0.61579   -1.02349    0.13603
C      3.29737   -5.35601   -0.31179
C      0.17100    1.02403    1.55386
C      0.58736    1.26091   -0.99934
C      4.92147   -7.03551   -0.85152
C      0.02495    0.36224    0.10045
O      1.09311    1.86709    1.67437
O     -0.66634    0.60441    2.39720
O      3.72874   -6.66805   -0.18268
H     -0.03567   -4.02825    1.67988
H      3.96632   -2.36346   -1.79901
H     -0.87638   -1.69611    1.54009
H      4.85375   -4.64520   -1.66966
H      2.27598   -0.66812   -1.17464
H      1.66867   -5.76446    1.00515
H      1.63239    1.50904   -0.79463
H      0.50971    0.79671   -1.99330
H      0.03950    2.20857   -1.01705
H      5.09530   -8.08570   -0.60470
H      5.78075   -6.44070   -0.51224
H      4.82787   -6.93585   -1.94199
H     -1.05661    0.24817   -0.03997
