39

C      9.76092   -1.62157   -1.08738
C      8.02930   -1.99937    0.49187
C     11.54943   -2.04220   -2.69649
C     11.07367   -1.76573    6.67564
C     10.45821    0.16394   -2.59693
C     13.00929   -3.97375   -2.63746
C     12.54020   -2.78771   -0.52156
C     10.48385   -1.31081    5.33630
C      9.29732   -2.17072    4.88422
C      8.70492   -1.70407    3.54790
C      7.54510   -2.58476    3.10037
N      9.59857   -2.89731   -0.80367
N      8.59686   -3.09782    0.11349
N     10.72070   -1.12779   -1.94414
N     12.33795   -2.86877   -1.96107
O     11.54833   -1.98721   -3.92273
O      6.44446   -0.40016    1.88022
S      8.65497   -0.53553   -0.23952
S      6.62840   -1.88955    1.64744
H     10.32406   -1.71815    7.47385
H     11.43206   -2.80013    6.61929
H     11.91834   -1.13579    6.97405
H     10.38524    0.94677   -1.83623
H      9.53837    0.13881   -3.18993
H     11.29156    0.38957   -3.25892
H     14.09774   -3.85648   -2.57450
H     12.71362   -3.98711   -3.68462
H     12.72743   -4.92079   -2.16297
H     11.95595   -3.55066    0.00314
H     12.25346   -1.80425   -0.15061
H     13.60457   -2.93778   -0.31082
H     11.26352   -1.33673    4.56365
H     10.16200   -0.26427    5.41171
H      8.51758   -2.14652    5.65731
H      9.61812   -3.21810    4.80236
H      9.48552   -1.71250    2.77878
H      8.35239   -0.67057    3.63463
H      6.77690   -2.67032    3.87682
H      7.85535   -3.58914    2.79481
