39

C      8.54669   -0.45548    0.00905
C      6.34638   -0.85746    0.80900
C     10.57668   -0.62846   -1.33807
C      6.10189   -6.79563    4.35820
C     10.12410    1.40534   -0.02701
C     11.41094   -2.67940   -2.31723
C     10.64111   -2.72362    0.03026
C      5.73258   -5.84815    3.21167
C      5.61845   -4.38625    3.66032
C      5.26096   -3.43810    2.50687
C      5.14739   -1.99119    2.97901
N      7.99991   -1.53210   -0.51848
N      6.73008   -1.74880   -0.04696
N      9.82197   -0.01393   -0.26698
N     10.86498   -1.94575   -1.18007
O     10.95831    0.06303   -2.27736
O      4.65619    0.56729    2.25483
S      7.50960    0.41576    1.14165
S      4.72252   -0.80924    1.61736
H      7.06684   -6.52334    4.80131
H      5.35071   -6.76344    5.15574
H      6.17501   -7.83163    4.01095
H     10.00936    1.62471    1.03853
H      9.47325    2.06330   -0.61174
H     11.15592    1.59080   -0.31800
H     12.42516   -3.03190   -2.09440
H     11.44553   -2.02402   -3.18523
H     10.77517   -3.54533   -2.53436
H      9.76009   -3.36527   -0.07140
H     10.50228   -2.06495    0.88671
H     11.52443   -3.34528    0.21304
H      4.78100   -6.16447    2.76535
H      6.48375   -5.92333    2.41486
H      6.56902   -4.06944    4.11051
H      4.86198   -4.30620    4.45252
H      4.31143   -3.75172    2.05586
H      6.01873   -3.51533    1.72051
H      6.06524   -1.61505    3.44154
H      4.32414   -1.85216    3.68802
