28   

C       -0.9870049224    0.3281858713    0.5211615928
C       -2.0416320070   -0.5888782187    0.6201538908
C       -1.7879713166    1.4790677782    2.5030543551
C       -3.9210815156    0.3917739006    3.5397769427
C       -2.8341710566    0.5556152388    2.5897633704
C       -0.8418982373    1.3742671624    1.4576472314
C       -2.9516301027   -0.4555392335    1.6611653857
C       -4.6570454247   -0.7109892841    3.1426344409
C       -5.7902527125   -1.3931287484    3.7610273493
C        1.2174586680    2.2843577590    2.5627159197
C       -0.2032501559    3.7698815519    1.0968242916
C        0.3121848922    2.3471900735    1.3290828667
N       -4.0556878916   -1.2370447641    1.9765993586
O       -6.1773432009   -2.5078616311    3.4361591648
O       -6.3733597228   -0.7083858030    4.7728987814
H       -0.2752429277    0.2224704424   -0.2894532531
H       -2.1456419863   -1.3916111782   -0.0988861310
H       -1.7102721397    2.2650572631    3.2439370541
H       -4.1128884689    0.9997648069    4.4156806538
H        0.6733192148    2.5782536002    3.4652742985
H        2.0726170829    2.9560285943    2.4384268726
H        1.5960255844    1.2661789813    2.6981282725
H       -0.8000901047    4.1146734062    1.9465545377
H       -0.8254231112    3.8001294263    0.1966693935
H        0.6363892304    4.4582086417    0.9588381255
H        0.9160810380    2.0659162931    0.4597686751
H       -4.3677645649   -2.0772943045    1.4937776733
H       -7.0869838119   -1.2852313186    5.0891199641
28   

C       -0.7202516104    0.1403905816    0.7958027944
C       -1.7301310033   -0.8211861127    0.9329500499
C       -1.8746067402    1.5912819777    2.3628397683
C       -4.0728014776    0.5522982142    3.3072384975
C       -2.8728501938    0.6209037180    2.4917789104
C       -0.7743381214    1.3590451235    1.5059779409
C       -2.7953103117   -0.5592335425    1.7853391147
C       -4.6811426212   -0.6639054536    3.0512502774
C       -5.8041141019   -1.3321243718    3.7081728754
C        1.0245971015    2.6515860824    2.6877123901
C       -0.1997298752    3.6676673079    0.7275834420
C        0.3379561167    2.3752209642    1.3466357632
N       -3.8876456201   -1.3549474579    2.1068247768
O       -5.9340257219   -2.5466154377    3.7764410529
O       -6.6719495957   -0.4927951103    4.3201694281
H        0.1135588258   -0.0661817553    0.1347679886
H       -1.6797157366   -1.7569068335    0.3906564850
H       -1.9507880648    2.5105191342    2.9302087941
H       -4.4112476148    1.2914786260    4.0231986886
H        0.3238288125    3.0855291075    3.4071661254
H        1.8561192244    3.3497073182    2.5494444983
H        1.4223199250    1.7206032707    3.1041468942
H       -0.9494828371    4.1304530105    1.3763631452
H       -0.6598593571    3.4544258406   -0.2425177705
H        0.6159785553    4.3808005472    0.5730866780
H        1.0932187855    1.9682376774    0.6658599339
H       -4.0562936552   -2.3091836426    1.7953682944
H       -7.3344877351   -1.0708460601    4.7310826214
28   

C       -0.7462906699    0.1698636297    0.7490802466
C       -1.7625391094   -0.7867091642    0.8745881863
C       -1.8848317300    1.6036605268    2.3429579135
C       -4.0776410552    0.5582784488    3.2905572827
C       -2.8888830736    0.6378821166    2.4606038491
C       -0.7890202697    1.3772904655    1.4789540302
C       -2.8226598480   -0.5312085024    1.7353457397
C       -4.6936213610   -0.6508097569    3.0216005853
C       -5.7700641126   -1.3410629969    3.7408592179
C        1.0180919444    2.6409859807    2.6814305630
C       -0.1936954038    3.6898830146    0.7309365587
C        0.3322701534    2.3859983869    1.3354744757
N       -3.9139074566   -1.3291273681    2.0560453636
O       -5.7641513957   -2.5341678982    4.0049147043
O       -6.7455706763   -0.5216831391    4.1971235023
H        0.0845554240   -0.0326527476    0.0830747488
H       -1.7191684643   -1.7150002814    0.3191048203
H       -1.9513363548    2.5130896039    2.9270918752
H       -4.3944707305    1.2786527428    4.0348923234
H        0.3196309522    3.0727767742    3.4043984460
H        1.8558722276    3.3335307977    2.5531676173
H        1.4069816258    1.7019833375    3.0881006156
H       -0.9419956112    4.1499793406    1.3833136428
H       -0.6524772846    3.4919822708   -0.2430338222
H        0.6278106885    4.3986900150    0.5876915733
H        1.0861238568    1.9811168203    0.6518904597
H       -4.0720879728   -2.2852580454    1.7462575247
H       -7.3558382679   -1.1007546909    4.6809626487
28   

C       -0.7806791380    0.1836597338    0.7105442697
C       -1.8038576760   -0.7664392760    0.8297689205
C       -1.8952867828    1.6029134838    2.3338476929
C       -4.0827710294    0.5567259811    3.2907124850
C       -2.9058354907    0.6432413569    2.4454214736
C       -0.8078941896    1.3805146320    1.4583674778
C       -2.8552283088   -0.5153363433    1.7026222439
C       -4.7088442116   -0.6439031980    3.0121550669
C       -5.7521873969   -1.3441299480    3.7827636174
C        1.0144721268    2.6156223290    2.6694030444
C       -0.1954445144    3.6957816625    0.7350025802
C        0.3217801205    2.3810507686    1.3230868438
N       -3.9471433575   -1.3121428433    2.0247854675
O       -5.6274556102   -2.4655034200    4.2472446862
O       -6.8427650024   -0.5884255488    4.0462588830
H        0.0440255401   -0.0161685749    0.0361461132
H       -1.7711720391   -1.6874247409    0.2615736667
H       -1.9491759904    2.5033573312    2.9329965256
H       -4.3777226808    1.2622103431    4.0578025588
H        0.3225291336    3.0458342525    3.3995310460
H        1.8577981161    3.3022370735    2.5455867987
H        1.3966721772    1.6690486963    3.0647066185
H       -0.9381858600    4.1541600343    1.3949139239
H       -0.6586820512    3.5125250680   -0.2397165844
H        0.6312553556    4.3996278711    0.5973128330
H        1.0700606917    1.9775011518    0.6326281264
H       -4.1056746512   -2.2647063394    1.7059444239
H       -7.4146130488   -1.1513113968    4.5920287297
28   

C       -0.7932697162    0.2002094282    0.6963042808
C       -1.8187384568   -0.7470440553    0.8184652188
C       -1.8787453057    1.6040688511    2.3523642385
C       -4.0580945481    0.5560275521    3.3260618367
C       -2.8916745884    0.6471911454    2.4667448262
C       -0.8049757760    1.3881060377    1.4586344276
C       -2.8566173883   -0.5023157889    1.7091715756
C       -4.6915295561   -0.6365995712    3.0422404410
C       -5.7436563493   -1.3296083416    3.8250237614
C        1.0370754966    2.6064162427    2.6576936083
C       -0.1945014809    3.7078139385    0.7491159616
C        0.3262572445    2.3862257497    1.3184176287
N       -3.9485716401   -1.2974557667    2.0354527879
O       -5.5533278557   -2.3220947437    4.5044438432
O       -6.9428491167   -0.7049473366    3.8077834480
H        0.0209036868    0.0053727084    0.0077901453
H       -1.7979629944   -1.6609380204    0.2384187705
H       -1.9205631635    2.4976150790    2.9626860354
H       -4.3398911510    1.2553167084    4.1035544383
H        0.3561303145    3.0322551632    3.4006019328
H        1.8809550357    3.2914720094    2.5290879498
H        1.4212815394    1.6551114451    3.0394508406
H       -0.9275391666    4.1620463373    1.4226122776
H       -0.6705853386    3.5349203348   -0.2213025700
H        0.6324100359    4.4106207100    0.6074470269
H        1.0643411605    1.9868168360    0.6147007756
H       -4.1212754191   -2.2389524905    1.6935327511
H       -7.5131601786   -1.2352522922    4.3866366560
28   

C       -0.7412968608    0.1695166051    0.8091763591
C       -1.7434101352   -0.7937128001    0.9847024577
C       -1.7923362485    1.5820938401    2.4806018651
C       -3.9463953113    0.5322985146    3.5148979507
C       -2.7844767498    0.6107130634    2.6462515764
C       -0.7481876117    1.3701802173    1.5510758692
C       -2.7532923246   -0.5513660794    1.9074207058
C       -4.5678453863   -0.6674623433    3.2654296198
C       -5.7607136132   -1.2733499419    3.9280683613
C        1.1325384355    2.6251883984    2.6391068636
C       -0.2263277981    3.7031879656    0.8045340658
C        0.3511377144    2.3916065898    1.3428827941
N       -3.8349184646   -1.3465412306    2.2637860337
O       -5.7207123935   -2.0011817551    4.8993623941
O       -6.9343022794   -0.9426310052    3.3435439748
H        0.0482165133   -0.0204676362    0.0912056568
H       -1.7306745127   -1.7138804376    0.4144309391
H       -1.8322733797    2.4887284620    3.0714512665
H       -4.2576205320    1.2716259712    4.2424561126
H        0.4852807992    3.0344514197    3.4205049007
H        1.9528132750    3.3283509159    2.4641473024
H        1.5578865827    1.6815340514    2.9953611826
H       -0.9254918005    4.1467249163    1.5198008233
H       -0.7562439704    3.5206142969   -0.1357715488
H        0.5781790714    4.4201247545    0.6132045913
H        1.0544224328    2.0064646034    0.5968356071
H       -4.0463333400   -2.2672591181    1.8898015737
H       -7.6149369184   -1.3893516636    3.8713459138
28   

C       -0.7069764634    0.0970297272    0.9178178054
C       -1.6932412829   -0.8722747253    1.1436023690
C       -1.7274787079    1.5379916233    2.5836822048
C       -3.8724605688    0.5156319156    3.6605215502
C       -2.7056557836    0.5618801165    2.7968488391
C       -0.7070088090    1.3150842885    1.6309369777
C       -2.6809914154   -0.6181591807    2.0869500610
C       -4.4942707223   -0.6959417128    3.4531348401
C       -5.8127149268   -1.1594621454    3.9537379226
C        1.2095949691    2.5939762756    2.6141167563
C       -0.2483435940    3.6532596665    0.8460863097
C        0.3672753424    2.3483207011    1.3596843877
N       -3.7633173760   -1.4012756238    2.4677627404
O       -6.0629183745   -1.5071615922    5.0908484677
O       -6.7363547894   -1.2781158398    2.9715325702
H        0.0617804665   -0.0996064011    0.1794152833
H       -1.6906115017   -1.8022724523    0.5893743504
H       -1.7661034663    2.4613670924    3.1481365186
H       -4.2178783469    1.3037457031    4.3182954109
H        0.5962997195    2.9964865639    3.4259088235
H        2.0116305056    3.3064060269    2.3972972140
H        1.6630316133    1.6559179815    2.9498623357
H       -0.9117741294    4.0966665377    1.5946283368
H       -0.8256145247    3.4624818410   -0.0642408264
H        0.5395039547    4.3751329313    0.6092038367
H        1.0350069425    1.9672085143    0.5796839662
H       -4.0286776052   -2.2931273715    2.0596627909
H       -7.5336724778   -1.6077757027    3.4157382049
28   

C       -0.7004960881    0.1221203224    0.9359218743
C       -1.6933763768   -0.8349540812    1.1848193345
C       -1.6873303556    1.5926970108    2.5959213285
C       -3.8328451403    0.6090382497    3.7041335985
C       -2.6725258383    0.6290772230    2.8313961826
C       -0.6801159710    1.3484413183    1.6345839929
C       -2.6675601172   -0.5602779215    2.1365502728
C       -4.4701540256   -0.6024412540    3.5213735214
C       -5.7970469325   -1.0163893167    4.0153400257
C        1.2708515315    2.6045536782    2.5747783170
C       -0.2087319375    3.6811429819    0.8356715633
C        0.4001422800    2.3685065184    1.3381422315
N       -3.7555105558   -1.3260588238    2.5371266368
O       -6.1430820753   -1.0740225870    5.1799780831
O       -6.6020688823   -1.4821410697    3.0299059020
H        0.0573727556   -0.0905102100    0.1907365564
H       -1.7066987928   -1.7711969312    0.6413600709
H       -1.7109960730    2.5231790616    3.1494530083
H       -4.1690093286    1.4128080348    4.3478799731
H        0.6786866251    3.0140369413    3.3987251307
H        2.0765343084    3.3075657693    2.3413954901
H        1.7200313331    1.6612924770    2.9015523160
H       -0.8491666711    4.1353866039    1.5975987847
H       -0.8083830595    3.4970749505   -0.0614572319
H        0.5836628061    4.3916608822    0.5803112103
H        1.0464391555    1.9781365439    0.5447908509
H       -4.0533687464   -2.2079631180    2.1288576842
H       -7.4187179282   -1.7487520571    3.4817836675
28   

C       -0.7168680526    0.1437877045    0.9059262460
C       -1.7199969983   -0.8056556232    1.1430278209
C       -1.6879819977    1.6044799486    2.5838262380
C       -3.8410039543    0.6292100642    3.6840221314
C       -2.6832333970    0.6485788890    2.8077392556
C       -0.6834559282    1.3612521076    1.6194976283
C       -2.6912688075   -0.5324203041    2.0981247154
C       -4.4920259588   -0.5742330348    3.4858596909
C       -5.8049862226   -0.9857437453    3.9977311689
C        1.2766088037    2.5904660163    2.5779532228
C       -0.1866261860    3.6954987910    0.8429481309
C        0.4081053667    2.3730080005    1.3362565538
N       -3.7861533677   -1.2921823849    2.4915682449
O       -6.2134288495   -0.8290928908    5.1335999578
O       -6.5212580866   -1.7031035264    3.0967449899
H        0.0390135036   -0.0679429754    0.1584770947
H       -1.7429786598   -1.7352949004    0.5886571900
H       -1.7014588380    2.5280525411    3.1491797863
H       -4.1649952340    1.4245290821    4.3445474503
H        0.6856984312    2.9993151472    3.4031091340
H        2.0900287837    3.2873289743    2.3530993233
H        1.7153006728    1.6402505241    2.8987576376
H       -0.8260025080    4.1487502857    1.6063752575
H       -0.7843693928    3.5247676890   -0.0580809395
H        0.6132315922    4.4009356972    0.5969568930
H        1.0536460632    1.9831768769    0.5420324256
H       -4.0964410315   -2.1684946595    2.0794629242
H       -7.3400817386   -1.9370661681    3.5629686567
28   

C       -0.7391972150    0.1691273937    0.8644875878
C       -1.7546360464   -0.7722824454    1.0801996710
C       -1.7067179896    1.6164267924    2.5561260143
C       -3.8732862278    0.6455670734    3.6338154792
C       -2.7140671659    0.6685784465    2.7590754494
C       -0.6975618018    1.3756595455    1.5959966840
C       -2.7300195452   -0.5019974922    2.0318833887
C       -4.5359977470   -0.5478606947    3.4122954464
C       -5.8264074028   -0.9786581975    3.9521444807
C        1.2664645797    2.5702156791    2.5908683025
C       -0.1656191302    3.7128601548    0.8542265296
C        0.4088284174    2.3778490382    1.3374028376
N       -3.8327121983   -1.2577548024    2.4109092827
O       -6.2991767223   -0.6495571103    5.0249264598
O       -6.4512740484   -1.8943995680    3.1694006672
H        0.0204984687   -0.0407160693    0.1203839462
H       -1.7829938986   -1.6941895520    0.5133017066
H       -1.7132993671    2.5311354633    3.1358512794
H       -4.1857488373    1.4269923371    4.3163140039
H        0.6717000555    2.9762312260    3.4146471079
H        2.0903275853    3.2600740559    2.3830553986
H        1.6906451809    1.6111805709    2.9048814535
H       -0.8083593018    4.1636154761    1.6163174689
H       -0.7552701809    3.5599191140   -0.0552854400
H        0.6446887683    4.4122352700    0.6257826171
H        1.0585217273    1.9902838084    0.5454614824
H       -4.1416358790   -2.1367192952    2.0026084258
H       -7.2684530164   -2.1094372738    3.6477366040
28   

C       -0.7418754407    0.2159026393    0.8125998107
C       -1.7689782024   -0.7166818336    1.0106781696
C       -1.6909779809    1.6428485627    2.5318246271
C       -3.8616785239    0.6727133667    3.6019861071
C       -2.7095027339    0.7035682874    2.7179011164
C       -0.6852547764    1.4078584630    1.5666759929
C       -2.7407889892   -0.4523908884    1.9676493645
C       -4.5400916984   -0.5068694271    3.3555514157
C       -5.7976079818   -0.9650496595    3.9413779777
C        1.2835284428    2.5727338372    2.5909228447
C       -0.1223144866    3.7444611835    0.8522132011
C        0.4347882844    2.3998292672    1.3283655307
N       -3.8487122428   -1.2047866079    2.3380131227
O       -6.3343521811   -0.5044209199    4.9328328499
O       -6.3304688067   -2.0328839280    3.2942762660
H        0.0156366433    0.0102811922    0.0651022944
H       -1.8080394955   -1.6280021206    0.4275279137
H       -1.6852068230    2.5457081384    3.1298586032
H       -4.1533586060    1.4345328132    4.3152912106
H        0.6866124894    2.9794038103    3.4127916789
H        2.1168799546    3.2548148590    2.3956086564
H        1.6942121280    1.6066276231    2.9011645836
H       -0.7685589173    4.1935776820    1.6123446626
H       -0.7044378931    3.6053730987   -0.0643492751
H        0.6965778345    4.4383773832    0.6382424683
H        1.0877565201    2.0124775520    0.5390202462
H       -4.1540993618   -2.0885827014    1.9370619766
H       -7.1413448941   -2.2385104804    3.7873856962
28   

C       -0.7819189072    0.2344674764    0.7772706043
C       -1.8239799639   -0.6845615972    0.9601149430
C       -1.7179912837    1.6568754326    2.5073608573
C       -3.9008748495    0.7017331899    3.5659915564
C       -2.7512416725    0.7309734841    2.6785080753
C       -0.7109335861    1.4170242253    1.5448251339
C       -2.7965060601   -0.4160180102    1.9151797852
C       -4.5963085683   -0.4641253137    3.3025064698
C       -5.8215452716   -0.9477713425    3.9326791651
C        1.2683499759    2.5402067420    2.5962840181
C       -0.1047019074    3.7504414131    0.8577557919
C        0.4270732587    2.3927633040    1.3253660614
N       -3.9126724744   -1.1597565306    2.2783027950
O       -6.4421167964   -0.3834280649    4.8158495214
O       -6.2440790937   -2.1388350029    3.4365063594
H       -0.0231854892    0.0249659189    0.0320937676
H       -1.8728184436   -1.5897168946    0.3681665112
H       -1.7004002510    2.5519054448    3.1168279545
H       -4.1728553680    1.4494344361    4.3017116058
H        0.6716409388    2.9489505788    3.4172685222
H        2.1141393637    3.2104905807    2.4139889541
H        1.6609888888    1.5648014708    2.9007556148
H       -0.7502609211    4.2022144864    1.6169036390
H       -0.6811957669    3.6292560574   -0.0648792451
H        0.7267774588    4.4333423931    0.6573571906
H        1.0802635829    2.0023522074    0.5377150671
H       -4.2107453599   -2.0525587711    1.8918958223
H       -7.0526754116   -2.3389849203    3.9356200301
28   

C       -0.8001029980    0.2669646227    0.7392200460
C       -1.8518201325   -0.6440085506    0.9062772473
C       -1.7287910553    1.6760109914    2.4841641652
C       -3.9174267811    0.7216335631    3.5317246204
C       -2.7715032548    0.7579663239    2.6397574705
C       -0.7202324978    1.4385205178    1.5225929922
C       -2.8252241561   -0.3783067337    1.8612363863
C       -4.6235517380   -0.4336223820    3.2503700097
C       -5.8116275527   -0.9527619262    3.9237487212
C        1.2640074733    2.5279753933    2.6012292687
C       -0.0832973363    3.7720602301    0.8664460724
C        0.4302962724    2.4037265055    1.3227038331
N       -3.9448153695   -1.1204531839    2.2169005217
O       -6.5321557814   -0.3307616817    4.6834922571
O       -6.0997844432   -2.2354476600    3.5851714301
H       -0.0399847009    0.0590458838   -0.0049890930
H       -1.9062347662   -1.5418574130    0.3037814911
H       -1.7034765806    2.5617211244    3.1068277533
H       -4.1726546767    1.4514594702    4.2909763452
H        0.6662193521    2.9347883971    3.4223785525
H        2.1186391634    3.1904866347    2.4321975797
H        1.6434670789    1.5450152547    2.8980424114
H       -0.7297710950    4.2220751291    1.6258665133
H       -0.6540786883    3.6672440390   -0.0617220842
H        0.7569373626    4.4481261797    0.6799066957
H        1.0850583013    2.0147643358    0.5356396683
H       -4.2294048597   -2.0225147657    1.8421840109
H       -6.9055061752   -2.4455924349    4.0847821955
28   

C       -0.8623607314    0.2770569323    0.7093681335
C       -1.9271331047   -0.6210500993    0.8628715516
C       -1.7674960632    1.6695953377    2.4796730558
C       -3.9605413343    0.7219725115    3.5239744369
C       -2.8227669593    0.7638094873    2.6221940540
C       -0.7641916702    1.4339667699    1.5121641838
C       -2.8950164180   -0.3573493754    1.8240125772
C       -4.6860709524   -0.4163111872    3.2232415021
C       -5.8386814728   -0.9680592267    3.9368512601
C        1.2284496312    2.4893487043    2.6128445746
C       -0.0917060253    3.7619042727    0.8778472535
C        0.4013196443    2.3842635865    1.3281162884
N       -4.0207036812   -1.0929220931    2.1740426534
O       -6.6632245739   -0.3301812168    4.5660720401
O       -5.9826473767   -2.3059307988    3.7604929417
H       -0.1060057307    0.0701469423   -0.0389482449
H       -1.9947874590   -1.5084635062    0.2464216234
H       -1.7273923840    2.5433238997    3.1182702763
H       -4.1909953229    1.4314105653    4.3098823322
H        0.6315752144    2.8999763540    3.4327237222
H        2.0932872204    3.1408454987    2.4530976623
H        1.5923875483    1.4995351595    2.9062877106
H       -0.7389005871    4.2138689578    1.6355238674
H       -0.6563480807    3.6706381071   -0.0554975217
H        0.7581301722    4.4289797979    0.7028345236
H        1.0564515903    1.9918978312    0.5430490195
H       -4.2985441866   -1.9991717621    1.8049380316
H       -6.7847888305   -2.5341687210    4.2577901435
28   

C       -0.8976582974    0.3022205943    0.6781771600
C       -1.9776781268   -0.5797329583    0.8183266513
C       -1.7870368003    1.6911893866    2.4591333361
C       -3.9938153491    0.7631082391    3.4915516086
C       -2.8573354275    0.8011583464    2.5884200105
C       -0.7836989833    1.4489966826    1.4933077903
C       -2.9449568074   -0.3099930824    1.7784560153
C       -4.7373286877   -0.3591525146    3.1767644894
C       -5.8680229722   -0.9306431795    3.9184847065
C        1.2193364893    2.4614714169    2.6164717906
C       -0.0674063792    3.7696914895    0.8829061422
C        0.3992886556    2.3805063435    1.3253431348
N       -4.0803860197   -1.0341641242    2.1207778002
O       -6.8039965676   -0.3109462785    4.3891141453
O       -5.8565917848   -2.2867470377    3.9351674192
H       -0.1412916333    0.0900573292   -0.0686583601
H       -2.0565525719   -1.4603199466    0.1934830454
H       -1.7343483085    2.5566934471    3.1079159790
H       -4.2052427496    1.4596317859    4.2940164265
H        0.6241620305    2.8760353218    3.4355949377
H        2.0962679282    3.0992487341    2.4676200797
H        1.5643576076    1.4633661833    2.9046475022
H       -0.7125340671    4.2260959899    1.6396896872
H       -0.6267258253    3.6953032971   -0.0551259910
H        0.7946502493    4.4238751420    0.7194091315
H        1.0532219254    1.9832729778    0.5417232778
H       -4.3544993931   -1.9422318056    1.7542980403
H       -6.6602173628   -2.5340462117    4.4205582541
28   

C       -0.9248659774    0.3187493791    0.6532657577
C       -2.0135431125   -0.5542516702    0.7813394626
C       -1.8021360280    1.6931332537    2.4514604180
C       -4.0162755048    0.7696781885    3.4731167595
C       -2.8810433640    0.8117557168    2.5687421337
C       -0.8004419502    1.4537417990    1.4831561172
C       -2.9787684142   -0.2874559490    1.7443723223
C       -4.7699200906   -0.3396920674    3.1436219910
C       -5.8940696780   -0.9315941741    3.8932503350
C        1.2082967129    2.4372974446    2.6231745304
C       -0.0601276450    3.7722922526    0.8964455064
C        0.3921908195    2.3751859482    1.3284407110
N       -4.1198603348   -1.0066042422    2.0779161702
O       -6.9383429236   -0.3764327842    4.1773857444
O       -5.7236822475   -2.2534163770    4.1378312967
H       -0.1698259746    0.1086158896   -0.0954909795
H       -2.1000831090   -1.4262233621    0.1455310297
H       -1.7411459233    2.5493050198    3.1117664788
H       -4.2156856936    1.4534067069    4.2893351902
H        0.6143608188    2.8507736443    3.4437254652
H        2.0918738776    3.0677871831    2.4827887217
H        1.5426830958    1.4335217202    2.9041057496
H       -0.7044756508    4.2275433241    1.6545924945
H       -0.6161042336    3.7111473714   -0.0445311650
H        0.8084022498    4.4201557140    0.7423450428
H        1.0454587262    1.9786935747    0.5438836923
H       -4.3946795316   -1.9087204830    1.6986814827
H       -6.5327055151   -2.5267323833    4.5993183785
28   

C       -0.9269380589    0.2899579472    0.6407728271
C       -2.0019836915   -0.6014224715    0.7546359512
C       -1.8376845494    1.6346661745    2.4449910279
C       -4.0482813151    0.6699306682    3.4391282235
C       -2.9035404614    0.7355100966    2.5476275449
C       -0.8259292146    1.4193677561    1.4812645139
C       -2.9771395644   -0.3583203508    1.7138552796
C       -4.7772240244   -0.4476294908    3.0966810807
C       -5.9288305161   -1.0575531594    3.8076997447
C        1.1700524966    2.4084048344    2.6350951139
C       -0.1198684458    3.7606393990    0.9376954989
C        0.3522672575    2.3613993917    1.3410108572
N       -4.1101770285   -1.0969167073    2.0307447964
O       -7.0651516508   -0.6275459136    3.8273465415
O       -5.6276011862   -2.2512040703    4.3701720536
H       -0.1642333298    0.0986028556   -0.1052540054
H       -2.0707322052   -1.4688012305    0.1104316627
H       -1.7946454638    2.4863969572    3.1123927462
H       -4.2701363661    1.3496288868    4.2526968432
H        0.5712460267    2.7951502240    3.4651092116
H        2.0438555598    3.0548317955    2.5065709420
H        1.5198982173    1.4039676268    2.8940298030
H       -0.7672196504    4.1930643623    1.7065239834
H       -0.6782067717    3.7105043798   -0.0025322385
H        0.7396838096    4.4225855342    0.7933866155
H        1.0089675764    1.9899286850    0.5471173504
H       -4.3771689644   -1.9873521668    1.6206214544
H       -6.4559748539   -2.5535943816    4.7752238424
28   

C       -0.8214391362    0.2396870552    0.7084505192
C       -1.8620184345   -0.6897723751    0.8355370335
C       -1.7635004457    1.5567472653    2.5172056957
C       -3.9601724292    0.5444208695    3.4978403269
C       -2.7968861739    0.6215741265    2.6309121630
C       -0.7538624194    1.3750527360    1.5441738485
C       -2.8367801041   -0.4781802555    1.8025279195
C       -4.6512399243   -0.5942563146    3.1606607866
C       -5.9479945077   -1.1089150896    3.6923408626
C        1.2362557430    2.4195499005    2.6492055194
C       -0.1534837059    3.7536954632    1.0173543316
C        0.3809839585    2.3652917700    1.3807026826
N       -3.9574935882   -1.2390263172    2.1096579820
O       -7.0409112536   -0.8423953158    3.2349022983
O       -5.8117464367   -1.9277694133    4.7597059288
H       -0.0622067604    0.0762251370   -0.0476934859
H       -1.9095235034   -1.5571147797    0.1893631506
H       -1.7495254885    2.4161133410    3.1759765585
H       -4.2460218597    1.2615307211    4.2573471996
H        0.6480211438    2.7658130321    3.5043332095
H        2.0800407413    3.1020011730    2.5073470316
H        1.6320535463    1.4245461555    2.8764287495
H       -0.7882545093    4.1520389703    1.8144806901
H       -0.7415016724    3.6993471541    0.0956151932
H        0.6771978803    4.4477159449    0.8554813691
H        1.0244956412    2.0325479366    0.5592987460
H       -4.2433524003   -2.0944397471    1.6418603662
H       -6.7167753570   -2.1775110710    5.0045518046
28   

C       -0.7417558681    0.1547946724    0.7616320345
C       -1.7434035153   -0.8133487934    0.9139433329
C       -1.6907822717    1.4391038890    2.5896123422
C       -3.8513081735    0.3746548659    3.5871694686
C       -2.6865406865    0.4671709291    2.7257577339
C       -0.6981255056    1.2942185520    1.5936128997
C       -2.7042357969   -0.6361301645    1.9017880997
C       -4.5177212593   -0.7890634660    3.2618941724
C       -5.8931500848   -1.1982705473    3.6370293352
C        1.2931925498    2.4021102842    2.6253024914
C       -0.2158654313    3.7059258994    1.0776150520
C        0.3864611533    2.3332563837    1.3944543148
N       -3.8065366288   -1.4221530084    2.2151120639
O       -6.8444208643   -1.1888765178    2.8768579809
O       -6.0394205215   -1.4975965916    4.9475905730
H        0.0028234441    0.0209507527   -0.0146274841
H       -1.7770412589   -1.6795593348    0.2653791730
H       -1.6990143259    2.3032476146    3.2421873985
H       -4.1836266183    1.1183680174    4.3008673020
H        0.7282119450    2.7089476458    3.5106929438
H        2.1014057533    3.1213087484    2.4599691009
H        1.7384304316    1.4206141839    2.8168455528
H       -0.8266848596    4.0703051613    1.9089184807
H       -0.8437164726    3.6427810187    0.1831042791
H        0.5801397080    4.4329795128    0.8885585460
H        1.0048035554    2.0388457190    0.5397685291
H       -4.1116374345   -2.2475046844    1.7063291191
H       -6.9817456016   -1.7013764702    5.0573461682
28   

C       -0.7559458588    0.1618348528    0.7420574703
C       -1.7559306711   -0.8086110634    0.8905905060
C       -1.6841986497    1.4176477805    2.6002895269
C       -3.8344114143    0.3388104427    3.6042226102
C       -2.6783281132    0.4435733492    2.7326289790
C       -0.7030652306    1.2884455919    1.5908175870
C       -2.7055163970   -0.6467784655    1.8917913109
C       -4.5059452877   -0.8219427994    3.2684075845
C       -5.8724523689   -1.2385256555    3.6315096434
C        1.2970903975    2.3858634043    2.6174015634
C       -0.2290318704    3.7068785474    1.1013482902
C        0.3784290221    2.3312550606    1.3947154416
N       -3.8055694767   -1.4364237941    2.2037396052
O       -6.7562650720   -1.4747885331    2.8241463212
O       -6.1170273055   -1.2252476141    4.9618799555
H       -0.0202889929    0.0401112475   -0.0446282303
H       -1.7973161395   -1.6646284590    0.2290393682
H       -1.6853587057    2.2718549297    3.2658804757
H       -4.1610416803    1.0721421566    4.3313189510
H        0.7405254693    2.6809013779    3.5120782831
H        2.1027616614    3.1081550570    2.4531479863
H        1.7453619879    1.4026361652    2.7922334500
H       -0.8324440100    4.0594373905    1.9431026743
H       -0.8653797465    3.6541757030    0.2121760531
H        0.5639569097    4.4376610426    0.9140124219
H        0.9888020141    2.0486881566    0.5303601255
H       -4.1280082223   -2.2451648050    1.6782491133
H       -7.0521616891   -1.4692895894    5.0495303161
28   

C       -0.7781641646    0.1977056824    0.7092105985
C       -1.7834459248   -0.7684825911    0.8486149428
C       -1.6864101627    1.4295109710    2.5934186601
C       -3.8314042601    0.3422325033    3.6013901004
C       -2.6856606451    0.4595275559    2.7171853588
C       -0.7125610865    1.3101126271    1.5756216779
C       -2.7251936698   -0.6168037471    1.8586372151
C       -4.5104849702   -0.8114995654    3.2529426883
C       -5.8466392577   -1.2737979431    3.6447136256
C        1.2977673432    2.3808970166    2.6119819086
C       -0.2233361139    3.7304193916    1.1159625240
C        0.3759663690    2.3475627079    1.3907556734
N       -3.8244625879   -1.4076607102    2.1692769092
O       -6.6656075215   -1.7429806067    2.8685574269
O       -6.1560325517   -1.0389721758    4.9409797843
H       -0.0477277177    0.0832604453   -0.0834093071
H       -1.8338700135   -1.6145001200    0.1749095468
H       -1.6767076651    2.2721030885    3.2735958636
H       -4.1420266829    1.0572112616    4.3535030239
H        0.7455016638    2.6690085054    3.5115551258
H        2.1081003348    3.0994988985    2.4545952985
H        1.7396265488    1.3925572251    2.7738728079
H       -0.8231924411    4.0757187571    1.9632608726
H       -0.8615471805    3.6927955679    0.2273609175
H        0.5738453362    4.4585850421    0.9364575970
H        0.9827433789    2.0717059411    0.5217123553
H       -4.1554251207   -2.2121834403    1.6416572323
H       -7.0686948772   -1.3526424047    5.0434939612
28   

C       -0.8180722423    0.2261139898    0.6727600854
C       -1.8321210624   -0.7317952242    0.8047097161
C       -1.7036585783    1.4412381565    2.5786551204
C       -3.8450890314    0.3524985424    3.5947048168
C       -2.7114326948    0.4792317679    2.6956355566
C       -0.7364256554    1.3256968425    1.5540343605
C       -2.7662702699   -0.5847784184    1.8223269446
C       -4.5345213537   -0.7925578969    3.2365307664
C       -5.8312240936   -1.3082785185    3.6743937770
C        1.2862395298    2.3635025402    2.6017016652
C       -0.2198844317    3.7436982852    1.1184104017
C        0.3642616818    2.3520487999    1.3799914967
N       -3.8654163325   -1.3744948514    2.1352747339
O       -6.5694137211   -1.9889497970    2.9756171731
O       -6.2034860126   -0.9038247748    4.9113213890
H       -0.0922817789    0.1142961119   -0.1244876651
H       -1.8934671940   -1.5694706121    0.1215304953
H       -1.6801742059    2.2730467136    3.2716567047
H       -4.1333509167    1.0476841156    4.3739060321
H        0.7374917514    2.6499362594    3.5039470486
H        2.1049270995    3.0740112962    2.4509153691
H        1.7166397433    1.3686988693    2.7547006306
H       -0.8169108536    4.0866396262    1.9686734293
H       -0.8576616091    3.7214659277    0.2289857750
H        0.5851830972    4.4650276132    0.9467403903
H        0.9684018996    2.0776444879    0.5086536249
H       -4.1983699687   -2.1845596734    1.6166699482
H       -7.0820470380   -1.2922751339    5.0498355371
28   

C       -0.8903323807    0.2295332356    0.6214406834
C       -1.9182103716   -0.7140954809    0.7481952558
C       -1.7421575988    1.4319719464    2.5508245994
C       -3.8808115058    0.3506523709    3.5824137867
C       -2.7632776770    0.4835957424    2.6636016236
C       -0.7845981165    1.3152528839    1.5171975439
C       -2.8415994071   -0.5669327975    1.7754580998
C       -4.5873763992   -0.7815025797    3.2157750104
C       -5.8371037687   -1.3473621823    3.7156515751
C        1.2533471915    2.3147962526    2.5760348300
C       -0.2276531091    3.7248081617    1.0953132623
C        0.3340768040    2.3233619750    1.3519439527
N       -3.9427568956   -1.3511763175    2.0942071463
O       -6.4818163694   -2.2064048139    3.1287967693
O       -6.2673897805   -0.8135389146    4.8829827057
H       -0.1714106971    0.1163067240   -0.1818085238
H       -1.9963494683   -1.5429108821    0.0559699894
H       -1.6983943074    2.2520682223    3.2566901689
H       -4.1370317302    1.0231018933    4.3922372681
H        0.7079512565    2.6075846760    3.4782457577
H        2.0843365910    3.0118149097    2.4295872161
H        1.6665859313    1.3123606568    2.7265760880
H       -0.8229488699    4.0718477846    1.9451556118
H       -0.8622609315    3.7165360014    0.2033887001
H        0.5889031293    4.4346881156    0.9304050837
H        0.9363568182    2.0430178803    0.4812086668
H       -4.2752514974   -2.1713432011    1.5909185955
H       -7.1017729031   -1.2700542753    5.0763866977
28   

C       -0.9242902838    0.2957554620    0.5687750485
C       -1.9642909657   -0.6367261018    0.6774172627
C       -1.7570454017    1.4679596247    2.5249668754
C       -3.8931746733    0.3776671001    3.5531632264
C       -2.7894528452    0.5299471218    2.6205571689
C       -0.8026183567    1.3604707227    1.4874139769
C       -2.8834604562   -0.4997350108    1.7098192519
C       -4.6110752842   -0.7411827637    3.1681267914
C       -5.8023309394   -1.3745190379    3.7238753191
C        1.2434434614    2.3144861357    2.5756851468
C       -0.2071452405    3.7656542855    1.1045743268
C        0.3328233208    2.3532150142    1.3453730391
N       -3.9849657583   -1.2852723676    2.0236636272
O       -6.3227331952   -2.3789757096    3.2558742072
O       -6.3065802626   -0.7606205913    4.8201249484
H       -0.2068555048    0.1887951264   -0.2366585339
H       -2.0523959747   -1.4517150167   -0.0298704838
H       -1.6990289368    2.2699970453    3.2502928246
H       -4.1200590717    1.0162654420    4.3983788854
H        0.6968263195    2.6040341507    3.4781804867
H        2.0859938084    3.0005055827    2.4440095231
H        1.6404560716    1.3040216314    2.7159432754
H       -0.8047045397    4.1081917928    1.9546783203
H       -0.8345243829    3.7787570202    0.2076177666
H        0.6204679305    4.4663479395    0.9564558008
H        0.9375678226    2.0760006008    0.4753444305
H       -4.3057114333   -2.1159744643    1.5299042582
H       -7.0822933863   -1.2878594984    5.0697388842
