19   
Generated by ForceBalance from scan.xyz: Frame 1 of 24
C        0.0902729712   -1.0885370178   -1.7129549609
C       -0.3802500660   -1.0622366457   -0.4551280559
C       -0.8334380055   -4.3295576923   -0.6703046747
C       -0.4432385970   -2.0089295150   -2.7828756482
C       -1.4980263197   -1.9544827580    0.0360337310
C       -1.7628482291   -2.6810803400   -2.3737223684
C       -1.7792524198   -3.1496284622   -0.9008677286
O       -1.2212755542   -5.4671639862   -0.5202351576
O        0.5030911192   -4.0559274201   -0.6284949979
H        0.9046803536   -0.4207401817   -1.9897102508
H        0.0442473518   -0.3601563316    0.2607660429
H       -0.5930777263   -1.4380312266   -3.7069794754
H        0.3179053900   -2.7627600165   -3.0235616730
H       -1.2786664668   -2.3069354526    1.0513507128
H       -2.4153496273   -1.3578170370    0.1260572799
H       -2.5802211565   -1.9598090621   -2.4900951272
H       -1.9839974782   -3.5232949419   -3.0365870949
H       -2.7687229999   -3.5529355321   -0.6771779748
H        0.6445897734   -3.0938981864   -0.5260628516
19   
Generated by ForceBalance from scan.xyz: Frame 2 of 24
C        0.1175798062   -1.0735217845   -1.6758659821
C       -0.3631786255   -1.0582522975   -0.4219144520
C       -0.8209251444   -4.3160167461   -0.6089844588
C       -0.4079011200   -1.9827636068   -2.7584297029
C       -1.4888044051   -1.9491513050    0.0522157890
C       -1.7216903978   -2.6748675480   -2.3623598799
C       -1.7606701048   -3.1442567177   -0.8914015458
O       -1.2089099683   -5.4081266665   -0.2586338194
O        0.5207637842   -4.0718745658   -0.7302614924
H        0.9350897110   -0.4042264779   -1.9398920146
H        0.0568205868   -0.3636435445    0.3038837394
H       -0.5643961371   -1.3987912757   -3.6734883658
H        0.3606694639   -2.7245058905   -3.0100085716
H       -1.2843325396   -2.3049416406    1.0695017326
H       -2.4069298921   -1.3522049245    0.1310407831
H       -2.5473682872   -1.9648396409   -2.4897639841
H       -1.9237784427   -3.5173320379   -3.0314167658
H       -2.7549453528   -3.5408247291   -0.6768895839
H        0.7037796020   -3.1296015681   -0.5458557965
19   
Generated by ForceBalance from scan.xyz: Frame 3 of 24
C        0.1199076928   -1.0577305395   -1.6819594976
C       -0.3606233726   -1.0593822438   -0.4281563064
C       -0.8075104545   -4.2956426802   -0.6032356810
C       -0.4100547223   -1.9444163827   -2.7803494155
C       -1.4957777144   -1.9463235313    0.0282797004
C       -1.7096727035   -2.6681003108   -2.3896772984
C       -1.7550620722   -3.1415334511   -0.9214426172
O       -1.1667228031   -5.3243061991   -0.0775107142
O        0.5229268058   -4.0908546526   -0.8879883118
H        0.9421843447   -0.3900014593   -1.9353461196
H        0.0636025827   -0.3797027753    0.3092638978
H       -0.5889176225   -1.3361056085   -3.6755390113
H        0.3649219144   -2.6669303852   -3.0634267037
H       -1.3112952507   -2.3042150065    1.0483914386
H       -2.4144555034   -1.3479852618    0.0900180084
H       -2.5509392689   -1.9773780560   -2.5217385306
H       -1.8885098487   -3.5120277581   -3.0636437456
H       -2.7489416651   -3.5412830757   -0.7092105985
H        0.7780422014   -3.1874640673   -0.6178035216
19   
Generated by ForceBalance from scan.xyz: Frame 4 of 24
C       -2.1458350557   -0.4136366684    0.0723613458
C       -0.8465681887   -0.7395253814    0.0697401204
C       -0.9514408517   -4.4555127088    1.0443343920
C       -3.2504792477   -1.4100986663    0.3264589647
C       -0.3314133949   -2.1291355049    0.3553307930
C       -2.7527913325   -2.8596128115    0.2476969162
C       -1.4255680817   -3.0143322440    0.9973159837
O       -1.3977881783   -5.3582775898    0.3801013673
O        0.1096343299   -4.6825497187    1.9145062774
H       -2.4372327949    0.6178070671   -0.1209689626
H       -0.1003443049    0.0236052736   -0.1466309673
H       -3.6986905104   -1.2132348685    1.3115332322
H       -4.0577922769   -1.2556399011   -0.3997372101
H        0.0175093980   -2.5936867214   -0.5776140684
H        0.5427208831   -2.0809862082    1.0131664964
H       -3.5012531588   -3.5479973370    0.6515843768
H       -2.5978101427   -3.1453873467   -0.7977591724
H       -1.5566265393   -2.6671717957    2.0330746232
H       -0.1596245487   -4.4692274102    2.8231859391
19   
Generated by ForceBalance from scan.xyz: Frame 5 of 24
C       -2.1643564676   -0.4238169438    0.0585892127
C       -0.8621085878   -0.7376749711    0.0601825647
C       -0.9411019343   -4.4502578541    1.0516489358
C       -3.2617080608   -1.4282210629    0.3130036657
C       -0.3357402530   -2.1216862855    0.3521185404
C       -2.7516164908   -2.8735464970    0.2377243692
C       -1.4251224776   -3.0150254764    0.9909104866
O       -1.4044747054   -5.3714285484    0.4259367846
O        0.1789321325   -4.6338147449    1.8656603033
H       -2.4640801720    0.6044913228   -0.1386117132
H       -0.1220417790    0.0314198103   -0.1565952485
H       -3.7125710824   -1.2337031385    1.2973435044
H       -4.0695218819   -1.2816427646   -0.4143341555
H        0.0233066590   -2.5842716783   -0.5781153154
H        0.5332397141   -2.0649602521    1.0153420383
H       -3.4953258895   -3.5675850724    0.6405398601
H       -2.5921537697   -3.1589764903   -0.8073922046
H       -1.5589316079   -2.6691250780    2.0264875179
H       -0.0871439370   -4.6462714286    2.7995441628
19   
Generated by ForceBalance from scan.xyz: Frame 6 of 24
C       -2.1659826127   -0.4129071927    0.0431332490
C       -0.8640880538   -0.7279546617    0.0541449091
C       -0.9476345503   -4.4292910888    1.0781819076
C       -3.2642041411   -1.4154366969    0.3012640963
C       -0.3382810487   -2.1091844419    0.3598344756
C       -2.7539999569   -2.8615676231    0.2407335448
C       -1.4313384076   -2.9965599297    1.0014816492
O       -1.4082589137   -5.3578064212    0.4604619642
O        0.1972892138   -4.5827213032    1.8670133243
H       -2.4644287620    0.6138721863   -0.1639625936
H       -0.1227618619    0.0392212763   -0.1651267830
H       -3.7191146206   -1.2127084644    1.2820623649
H       -4.0689646586   -1.2750979088   -0.4306943980
H        0.0248338374   -2.5788909166   -0.5652705280
H        0.5267013512   -2.0475183771    1.0273932508
H       -3.4999948076   -3.5515319166    0.6464098989
H       -2.5905448335   -3.1560962169   -0.8013320538
H       -1.5661079042   -2.6437619260    2.0339691652
H       -0.0497186398   -4.8363698784    2.7711379679
19   
Generated by ForceBalance from scan.xyz: Frame 7 of 24
C       -2.1782326475   -0.4253880439    0.0261455243
C       -0.8755691679   -0.7367270828    0.0466529958
C       -0.9541387124   -4.4263066364    1.1139306239
C       -3.2736017055   -1.4295379305    0.2900810781
C       -0.3456419378   -2.1126475032    0.3689179522
C       -2.7579453313   -2.8744610578    0.2470997981
C       -1.4387419960   -2.9960827443    1.0158833917
O       -1.4184847723   -5.3672063086    0.5153313166
O        0.2140319507   -4.5444686325    1.8686386914
H       -2.4791751629    0.5982469601   -0.1927827636
H       -0.1358283427    0.0307326263   -0.1768804497
H       -3.7333857834   -1.2183319807    1.2667865437
H       -4.0757221642   -1.2999360431   -0.4467559465
H        0.0226018429   -2.5906595803   -0.5498685721
H        0.5161414020   -2.0404336972    1.0393851318
H       -3.5033614476   -3.5626851474    0.6565435114
H       -2.5887959247   -3.1791690750   -0.7912161422
H       -1.5781330440   -2.6329979472    2.0436912791
H        0.0271108860   -5.0150561552    2.6975600337
19   
Generated by ForceBalance from scan.xyz: Frame 8 of 24
C       -2.1921529342   -0.4534810983    0.0089657877
C       -0.8883458820   -0.7591301086    0.0401094523
C       -0.9644874301   -4.4347363096    1.1654566149
C       -3.2845717087   -1.4582881116    0.2824448582
C       -0.3545152783   -2.1280601008    0.3852326485
C       -2.7629981250   -2.9015085272    0.2621659806
C       -1.4471277739   -3.0061855376    1.0391557601
O       -1.4470649924   -5.3923111482    0.6049013556
O        0.2228457429   -4.5229080882    1.8797076190
H       -2.4961746988    0.5656781213   -0.2260849465
H       -0.1506826269    0.0081493681   -0.1908049752
H       -3.7492979188   -1.2352669624    1.2541663125
H       -4.0840804038   -1.3424738780   -0.4595087524
H        0.0210674518   -2.6176071041   -0.5244444748
H        0.5034982098   -2.0412463438    1.0588108226
H       -3.5071178369   -3.5871747498    0.6777242971
H       -2.5877656541   -3.2197795838   -0.7711843850
H       -1.5941974290   -2.6296201099    2.0607942057
H        0.1165376609   -5.1684686104    2.5988120811
19   
Generated by ForceBalance from scan.xyz: Frame 9 of 24
C       -2.1915941445   -0.4450701421   -0.0038237748
C       -0.8873513415   -0.7476636791    0.0373135615
C       -0.9706653017   -4.4166560566    1.1894293702
C       -3.2847342984   -1.4489455869    0.2700239627
C       -0.3548290326   -2.1137317763    0.3956712998
C       -2.7613986293   -2.8915192477    0.2633689216
C       -1.4501949262   -2.9881010618    1.0493489315
O       -1.4567171809   -5.3841771367    0.6447720167
O        0.2062296169   -4.4938437612    1.9063695195
H       -2.4956617146    0.5719439686   -0.2478558333
H       -0.1494196190    0.0192128240   -0.1941806005
H       -3.7557094274   -1.2194769927    1.2372180433
H       -4.0797264413   -1.3394753706   -0.4777307454
H        0.0268341847   -2.6096893408   -0.5079558011
H        0.4992335830   -2.0202321642    1.0735505717
H       -3.5069222108   -3.5751114404    0.6795593613
H       -2.5795875781   -3.2170089982   -0.7666138038
H       -1.6053229415   -2.6050636882    2.0670979896
H        0.1661165662   -5.2846142411    2.4728977743
19   
Generated by ForceBalance from scan.xyz: Frame 10 of 24
C       -2.1994596938   -0.4643100388   -0.0182932467
C       -0.8934500799   -0.7581561054    0.0295247005
C       -0.9599584847   -4.4097973935    1.2372558477
C       -3.2874306351   -1.4695005202    0.2707490040
C       -0.3542694915   -2.1150900360    0.4117875388
C       -2.7560817234   -2.9089239480    0.2877206100
C       -1.4454313436   -2.9852877187    1.0772205835
O       -1.4372163258   -5.3915807516    0.7063179794
O        0.1904135800   -4.4738896766    1.9826660636
H       -2.5090890360    0.5466952723   -0.2796104645
H       -0.1595835533    0.0090639818   -0.2134640115
H       -3.7605778452   -1.2270327248    1.2336727531
H       -4.0822347561   -1.3765488445   -0.4794463002
H        0.0330365889   -2.6238162024   -0.4823057187
H        0.4975753962   -2.0046803612    1.0902058569
H       -3.4981635377   -3.5900395342    0.7138876659
H       -2.5708882787   -3.2496672467   -0.7366648728
H       -1.6055940600   -2.5893872006    2.0889305785
H        0.2279205080   -5.3638470031    2.3791134914
19   
Generated by ForceBalance from scan.xyz: Frame 11 of 24
C       -2.2576527223   -0.4721615068   -0.0412640583
C       -0.9453137864   -0.7373913693   -0.0009968425
C       -0.9156348943   -4.3615139664    1.2738318898
C       -3.3206205319   -1.4947040724    0.2782750228
C       -0.3741671341   -2.0754928906    0.4007824617
C       -2.7585108892   -2.9219040725    0.3230558750
C       -1.4384537004   -2.9523657125    1.1004354039
O       -1.3189254804   -5.3535808423    0.6990110611
O        0.1561041669   -4.4034255362    2.1199459018
H       -2.5916771347    0.5269773700   -0.3177984539
H       -0.2304281085    0.0406843766   -0.2649349098
H       -3.7922143005   -1.2405816193    1.2388962540
H       -4.1223843094   -1.4359059883   -0.4679702397
H        0.0085068537   -2.5958416360   -0.4886930174
H        0.4853108514   -1.9349839826    1.0643282443
H       -3.4820293437   -3.6074721221    0.7738202262
H       -2.5768948292   -3.2837527280   -0.6944314998
H       -1.5952154597   -2.5394646742    2.1050560463
H        0.3123617952   -5.3457356028    2.3214154234
19   
Generated by ForceBalance from scan.xyz: Frame 12 of 24
C       -2.2191607313   -0.5047149200   -0.0449830825
C       -0.9093930188   -0.7808386690    0.0033071075
C       -0.9078247604   -4.3844960758    1.3196466216
C       -3.2914233920   -1.5115137238    0.2929006707
C       -0.3506510056   -2.1150474584    0.4339496726
C       -2.7422885026   -2.9427499103    0.3581185450
C       -1.4249811238   -2.9747670238    1.1405257635
O       -1.2555255725   -5.3636922347    0.6884399620
O        0.0560584872   -4.4522154757    2.2824181636
H       -2.5436411349    0.4911743337   -0.3436093584
H       -0.1869011359   -0.0152777792   -0.2760598773
H       -3.7579878307   -1.2384022091    1.2507163060
H       -4.0943141895   -1.4566317029   -0.4523734462
H        0.0378822468   -2.6526097654   -0.4426754098
H        0.5027213304   -1.9669815801    1.1042695453
H       -3.4736199062   -3.6153440533    0.8163419900
H       -2.5605400902   -3.3199775183   -0.6535532698
H       -1.5803769715   -2.5526884635    2.1409553611
H        0.3447699494   -5.3848294585    2.3127152878
19   
Generated by ForceBalance from scan.xyz: Frame 13 of 24
C       -2.2250256423   -0.5006631176   -0.0465939661
C       -0.9154084118   -0.7773824711    0.0024516717
C       -0.9170183694   -4.3850746145    1.3064923503
C       -3.2988716853   -1.5078879618    0.2847783965
C       -0.3587897214   -2.1145128309    0.4270744834
C       -2.7510288292   -2.9398071940    0.3463795524
C       -1.4344663675   -2.9755103376    1.1296575686
O       -1.2668770859   -5.3630262125    0.6756472721
O        0.0052280412   -4.4628296233    2.3112933892
H       -2.5483385068    0.4970294073   -0.3404161827
H       -0.1919904110   -0.0107462408   -0.2715179617
H       -3.7675005757   -1.2377322340    1.2424052055
H       -4.0999249474   -1.4495386303   -0.4622272140
H        0.0284171806   -2.6481777969   -0.4526987842
H        0.4946722254   -1.9709040411    1.0983433661
H       -3.4831932474   -3.6130701216    0.8022714646
H       -2.5689129192   -3.3144082373   -0.6662128717
H       -1.5894751116   -2.5565011996    2.1315678140
H        0.4448911427   -5.3294951447    2.2177346098
19   
Generated by ForceBalance from scan.xyz: Frame 14 of 24
C       -2.2139948737   -0.5045636812   -0.0447171446
C       -0.9063033342   -0.7890285086    0.0107801504
C       -0.9358894244   -4.3965404354    1.3173894965
C       -3.2959048544   -1.5049514475    0.2811011137
C       -0.3604629156   -2.1299463522    0.4378862098
C       -2.7576215173   -2.9404405765    0.3447198416
C       -1.4451776350   -2.9851033799    1.1337578489
O       -1.3063671629   -5.3772972219    0.7056007859
O       -0.0288437767   -4.4758632104    2.3433670083
H       -2.5295028061    0.4952978608   -0.3396740543
H       -0.1767993057   -0.0267340062   -0.2591912809
H       -3.7669333985   -1.2321551106    1.2367836895
H       -4.0932413255   -1.4407898422   -0.4693929109
H        0.0286840128   -2.6644202552   -0.4407846868
H        0.4896425197   -1.9916320788    1.1145480676
H       -3.4957188458   -3.6094267538    0.7972161468
H       -2.5737440247   -3.3156977411   -0.6674192418
H       -1.6009664389   -2.5655978263    2.1355625395
H        0.5560777869   -5.2333196539    2.1568150816
19   
Generated by ForceBalance from scan.xyz: Frame 15 of 24
C       -2.2200926331   -0.5150363957   -0.0439491606
C       -0.9134928864   -0.8026105560    0.0211192530
C       -0.9640959556   -4.4203371917    1.3103485372
C       -3.3065435135   -1.5159955196    0.2644698956
C       -0.3731269202   -2.1471304598    0.4440614249
C       -2.7713223491   -2.9530700577    0.3206520144
C       -1.4661363357   -3.0069706987    1.1200289708
O       -1.3933310157   -5.4097616699    0.7577882904
O       -0.0104366405   -4.4894186561    2.3056177542
H       -2.5309434851    0.4876978366   -0.3341485997
H       -0.1803849509   -0.0395770843   -0.2367194991
H       -3.7848154218   -1.2505114246    1.2185957331
H       -4.0975831117   -1.4436104032   -0.4919098897
H        0.0270460248   -2.6736563730   -0.4348375152
H        0.4682957365   -2.0142601689    1.1323506773
H       -3.5138662354   -3.6252921206    0.7604052823
H       -2.5797825587   -3.3191438899   -0.6937034211
H       -1.6299917074   -2.5939134579    2.1239243338
H        0.6849529079   -5.1094260623    2.0231572430
19   
Generated by ForceBalance from scan.xyz: Frame 16 of 24
C       -2.2234459167   -0.5463175510   -0.0480984692
C       -0.9176519424   -0.8342966217    0.0301047155
C       -0.9855075418   -4.4410657692    1.3615476343
C       -3.3132876733   -1.5433135361    0.2609248383
C       -0.3817313488   -2.1748794328    0.4710261152
C       -2.7800084032   -2.9804228200    0.3334569124
C       -1.4810749548   -3.0289829432    1.1427245733
O       -1.4617174431   -5.4415632179    0.8759053753
O        0.0188284405   -4.4928836700    2.3184174981
H       -2.5307894999    0.4540138631   -0.3500945601
H       -0.1818787858   -0.0742470839   -0.2289026870
H       -3.7980138053   -1.2692609065    1.2093414646
H       -4.0988420661   -1.4762711124   -0.5016257064
H        0.0284122646   -2.7082060853   -0.3995660161
H        0.4520599458   -2.0344718145    1.1670134324
H       -3.5259269519   -3.6487529976    0.7729396175
H       -2.5815405747   -3.3546048556   -0.6768723539
H       -1.6533454843   -2.6064796071    2.1419094143
H        0.7960334203   -4.9449061607    1.9486508677
19   
Generated by ForceBalance from scan.xyz: Frame 17 of 24
C       -2.2184957780   -0.5653961599   -0.0497146234
C       -0.9135794174   -0.8544013312    0.0375304129
C       -0.9952964379   -4.4551005381    1.3899013719
C       -3.3120661211   -1.5578093875    0.2600641054
C       -0.3825557114   -2.1928336728    0.4915723436
C       -2.7818959935   -2.9953548720    0.3437113996
C       -1.4875327134   -3.0430187334    1.1605740151
O       -1.4902501325   -5.4573329042    0.9324948387
O        0.0431285605   -4.5103562109    2.3203841844
H       -2.5221265443    0.4334316930   -0.3602071749
H       -0.1749871497   -0.0973576140   -0.2222208696
H       -3.8005971521   -1.2769336291    1.2044996749
H       -4.0938459367   -1.4935997435   -0.5065703416
H        0.0342200615   -2.7312291902   -0.3729540804
H        0.4452654931   -2.0454975137    1.1934261700
H       -3.5313925512   -3.6598033776    0.7827748377
H       -2.5789211591   -3.3754883444   -0.6635878204
H       -1.6641417641   -2.6153731516    2.1567304556
H        0.8737516143   -4.7507147650    1.8775691883
19   
Generated by ForceBalance from scan.xyz: Frame 18 of 24
C        0.1525892516   -1.0149144263   -1.9049603635
C       -0.2007259856   -0.9367817280   -0.6131767154
C       -0.3804250225   -4.1084482796   -0.7225057314
C       -0.4770104773   -1.9661841421   -2.8928580867
C       -1.2587293899   -1.8218967357    0.0040203588
C       -1.7121944859   -2.6827804640   -2.3210731146
C       -1.4989418859   -3.0781831959   -0.8516436470
O        0.0085114416   -4.8084239404   -1.6259258235
O        0.0885122300   -4.2925268595    0.5776436229
H        0.9378834798   -0.3603605092   -2.2814696350
H        0.2802607860   -0.2034660217    0.0326748541
H       -0.7559497919   -1.4142892877   -3.7990556701
H        0.2700704562   -2.7037093985   -3.2111516597
H       -0.9836747478   -2.1028769060    1.0245564334
H       -2.2023750569   -1.2666487301    0.0902336375
H       -2.5783597711   -2.0125632411   -2.3645315270
H       -1.9469587872   -3.5632495993   -2.9240053549
H       -2.3924499530   -3.5922328882   -0.4704191227
H        0.8799752809   -3.7474838048    0.7204739457
19   
Generated by ForceBalance from scan.xyz: Frame 19 of 24
C        0.1728022837   -1.0575865822   -1.8072165085
C       -0.2546344584   -0.9710350059   -0.5375902158
C       -0.4802527289   -4.1426812478   -0.7201917145
C       -0.4249651415   -1.9940514284   -2.8307912074
C       -1.3572154475   -1.8411026222    0.0219453194
C       -1.7118087741   -2.6704175558   -2.3307848461
C       -1.5806517096   -3.0837206416   -0.8506063384
O       -0.3970959872   -5.0954722946   -1.4573846001
O        0.4248982588   -3.9684901020    0.3177374345
H        0.9878669410   -0.4157909374   -2.1398830580
H        0.2031423136   -0.2462755997    0.1341772258
H       -0.6327001558   -1.4355258751   -3.7517235921
H        0.3176455111   -2.7531452144   -3.1123027297
H       -1.1228852830   -2.1314323500    1.0499663540
H       -2.2914270898   -1.2656284292    0.0713206345
H       -2.5509971450   -1.9706549522   -2.4127390543
H       -1.9455506577   -3.5428389937   -2.9449960073
H       -2.5036477364   -3.5892959029   -0.5407480637
H        1.0506798116   -3.2627013419    0.0761064108
19   
Generated by ForceBalance from scan.xyz: Frame 20 of 24
C        0.1699293606   -1.0529431387   -1.7631701381
C       -0.2812005778   -0.9711574099   -0.5009043112
C       -0.5486979268   -4.1761817926   -0.7125180077
C       -0.4000069845   -2.0000066329   -2.7931923296
C       -1.3814493304   -1.8536957278    0.0444783005
C       -1.7079655997   -2.6556316889   -2.3243028565
C       -1.6173620198   -3.0841407129   -0.8431309142
O       -0.6032005172   -5.2131909462   -1.3307967250
O        0.5169919746   -3.9097328915    0.1233526774
H        0.9809598793   -0.3996658876   -2.0825777557
H        0.1561333246   -0.2405038291    0.1778729000
H       -0.5712022106   -1.4545186674   -3.7289936884
H        0.3449595165   -2.7699563157   -3.0396576551
H       -1.1406345622   -2.1592173070    1.0675958382
H       -2.3129072997   -1.2756579262    0.1109897745
H       -2.5313164120   -1.9387760491   -2.4190538981
H       -1.9467431264   -3.5209321084   -2.9470497062
H       -2.5586110707   -3.5692166785   -0.5624468342
H        0.9642190263   -3.0990132907   -0.1853012380
19   
Generated by ForceBalance from scan.xyz: Frame 21 of 24
C        0.1251235630   -1.0789700956   -1.7443606845
C       -0.3340051610   -1.0022671383   -0.4842231969
C       -0.7021537216   -4.2209088434   -0.7313834059
C       -0.4504042727   -2.0117753336   -2.7843107604
C       -1.4520243916   -1.8715429841    0.0468920409
C       -1.7815177418   -2.6334792866   -2.3355264202
C       -1.7231606579   -3.0833236583   -0.8585197941
O       -0.8745988055   -5.3006761124   -1.2494931028
O        0.4569881342   -3.9504792030   -0.0495603894
H        0.9474254407   -0.4344382776   -2.0520441211
H        0.1092735529   -0.2839875256    0.2037254719
H       -0.5928308335   -1.4622563094   -3.7223260582
H        0.2798898964   -2.7995124387   -3.0189508850
H       -1.2175307432   -2.1980693818    1.0657850897
H       -2.3686185780   -1.2719225875    0.1263833482
H       -2.5806667553   -1.8896033136   -2.4302799436
H       -2.0417420609   -3.4834651385   -2.9711443045
H       -2.6838357382   -3.5364107155   -0.5955063841
H        0.7814260290   -3.0655810309   -0.3086363468
19   
Generated by ForceBalance from scan.xyz: Frame 22 of 24
C        0.1417010221   -1.0540319151   -1.7348978355
C       -0.3212346700   -0.9884734942   -0.4753457341
C       -0.6715700797   -4.2331425531   -0.7164809931
C       -0.4108898482   -1.9981767918   -2.7762548978
C       -1.4257632792   -1.8778853716    0.0522309870
C       -1.7331634050   -2.6423026305   -2.3341844908
C       -1.6854518595   -3.0918192934   -0.8559158517
O       -0.9078148171   -5.3556444050   -1.1038796477
O        0.5497410511   -3.9295728379   -0.1841440973
H        0.9544779572   -0.3956656694   -2.0382288125
H        0.1089648152   -0.2652828755    0.2156885393
H       -0.5582935356   -1.4526942715   -3.7157930930
H        0.3366044043   -2.7713457228   -3.0044214308
H       -1.1865426885   -2.2033315232    1.0710022617
H       -2.3503101545   -1.2913953538    0.1355111593
H       -2.5437756305   -1.9116336347   -2.4356577155
H       -1.9776576626   -3.4959563034   -2.9717294843
H       -2.6480714377   -3.5441507917   -0.6028708981
H        0.7582635495   -2.9907561227   -0.3630706840
19   
Generated by ForceBalance from scan.xyz: Frame 23 of 24
C        0.1303194884   -1.0558960205   -1.7314967038
C       -0.3345081755   -1.0022251111   -0.4721442239
C       -0.7270012012   -4.2656089167   -0.7102408585
C       -0.4145082441   -1.9966663778   -2.7792592420
C       -1.4385650815   -1.8964793284    0.0481149689
C       -1.7375080275   -2.6458120582   -2.3469002649
C       -1.7109740926   -3.1025889926   -0.8700523443
O       -1.0385271084   -5.4148801186   -0.9322883697
O        0.5508483433   -3.9633878144   -0.3439378344
H        0.9416896753   -0.3927446599   -2.0278645952
H        0.0926806789   -0.2834379700    0.2252945148
H       -0.5602390443   -1.4467665366   -3.7164769113
H        0.3375611563   -2.7650346944   -3.0069454622
H       -1.1971892534   -2.2331547800    1.0632813999
H       -2.3607734813   -1.3082758409    0.1430673253
H       -2.5477033621   -1.9149894213   -2.4518141613
H       -1.9791988271   -3.4948362103   -2.9924075889
H       -2.6844823131   -3.5350565569   -0.6275661917
H        0.7024511561   -3.0012244450   -0.4338906641
19   
Generated by ForceBalance from scan.xyz: Frame 24 of 24
C        0.1122858771   -1.0876703476   -1.7426077433
C       -0.3513746869   -1.0446471833   -0.4825568291
C       -0.7797708903   -4.3147746724   -0.7057217716
C       -0.4293935010   -2.0220980158   -2.7969754795
C       -1.4600634210   -1.9373795298    0.0289323027
C       -1.7509314171   -2.6794550417   -2.3712891173
C       -1.7421940169   -3.1393033669   -0.8951463674
O       -1.1411729416   -5.4703593581   -0.7479885568
O        0.5354824826   -4.0218167289   -0.5029757110
H        0.9234848647   -0.4221450938   -2.0338517196
H        0.0755853355   -0.3313804907    0.2206612368
H       -0.5784217777   -1.4647788379   -3.7293398125
H        0.3261102000   -2.7847650906   -3.0298896509
H       -1.2262915278   -2.2803160238    1.0441289391
H       -2.3790513449   -1.3440893601    0.1244470684
H       -2.5635152291   -1.9518961197   -2.4811313609
H       -1.9858808879   -3.5261010723   -3.0230379306
H       -2.7237633917   -3.5552135650   -0.6588973489
H        0.6653718454   -3.0525020085   -0.4947121782
